/*---------------------------------------------------------------------------*\
| =========                 |                                                 |
| \\      /  F ield         | OpenFOAM: The Open Source CFD Toolbox           |
|  \\    /   O peration     | Version:  4.1                                   |
|   \\  /    A nd           | Web:      www.OpenFOAM.org                      |
|    \\/     M anipulation  |                                                 |
\*---------------------------------------------------------------------------*/
Build  : 4.1
Exec   : rhoCentralFoam
Date   : Mar 29 2017
Time   : 08:15:26
Host   : "ubuntu"
PID    : 4791
Case   : /home/parallels/Desktop/ntest
nProcs : 1
sigFpe : Enabling floating point exception trapping (FOAM_SIGFPE).
fileModificationChecking : Monitoring run-time modified files using timeStampMaster
allowSystemOperations : Allowing user-supplied system call operations

// * * * * * * * * * * * * * * * * * * * * * * * * * * * * * * * * * * * * * //
Create time

--> FOAM Warning : 
    From function static Foam::IOstream::compressionType Foam::IOstream::compressionEnum(const Foam::word&)
    in file db/IOstreams/IOstreams/IOstream.C at line 80
    bad compression specifier 'YES', using 'uncompressed'
Create mesh for time = 0

--> FOAM Warning : 
    From function bool Foam::dictionary::add(Foam::entry*, bool)
    in file db/dictionary/dictionary.C at line 807
    Reading "/home/parallels/Desktop/ntest/system/fvSolution.solvers.(k|epsilon).*" from line 56 to line 60
    attempt to add entry solver which already exists in dictionary "/home/parallels/Desktop/ntest/system/fvSolution.solvers.(k|epsilon).*"
--> FOAM Warning : 
    From function bool Foam::dictionary::add(Foam::entry*, bool)
    in file db/dictionary/dictionary.C at line 807
    Reading "/home/parallels/Desktop/ntest/system/fvSolution.solvers.(k|epsilon).*" from line 56 to line 28
    attempt to add entry tolerance which already exists in dictionary "/home/parallels/Desktop/ntest/system/fvSolution.solvers.(k|epsilon).*"
--> FOAM Warning : 
    From function bool Foam::dictionary::add(Foam::entry*, bool)
    in file db/dictionary/dictionary.C at line 807
    Reading "/home/parallels/Desktop/ntest/system/fvSolution.solvers.(k|epsilon).*" from line 56 to line 28
    attempt to add entry relTol which already exists in dictionary "/home/parallels/Desktop/ntest/system/fvSolution.solvers.(k|epsilon).*"
Reading thermophysical properties

Selecting thermodynamics package 
{
    type            hePsiThermo;
    mixture         pureMixture;
    transport       const;
    thermo          hConst;
    equationOfState perfectGas;
    specie          specie;
    energy          sensibleInternalEnergy;
}

--> FOAM Warning : 
    From function Foam::Field<Type>::Field(const Foam::word&, const Foam::dictionary&, Foam::label) [with Type = double; Foam::label = int]
    in file /home/ubuntu/OpenFOAM/OpenFOAM-4.1/src/OpenFOAM/lnInclude/Field.C at line 317
    Reading "/home/parallels/Desktop/ntest/0/p.boundaryField.InletN" from line 66 to line 69
    expected keyword 'uniform' or 'nonuniform', assuming deprecated Field format from Foam version 2.0.
Reading field U

Creating turbulence model

Selecting turbulence model type RAS
Selecting RAS turbulence model LaunderSharmaKE
LaunderSharmaKECoeffs
{
    Cmu             0.09;
    C1              1.44;
    C2              1.92;
    C3              -0.33;
    sigmak          1;
    sigmaEps        1.3;
}

No finite volume options present


Starting time loop

Mean and max Courant Numbers = 7.39871 166.938
deltaT = 1.42857e-06
Time = 1.42857e-06

diagonal:  Solving for rho, Initial residual = 0, Final residual = 0, No Iterations 0
diagonal:  Solving for rhoUx, Initial residual = 0, Final residual = 0, No Iterations 0
diagonal:  Solving for rhoUy, Initial residual = 0, Final residual = 0, No Iterations 0
diagonal:  Solving for rhoUz, Initial residual = 0, Final residual = 0, No Iterations 0
smoothSolver:  Solving for Ux, Initial residual = 3.946e-05, Final residual = 8.59844e-09, No Iterations 2
smoothSolver:  Solving for Uy, Initial residual = 1, Final residual = 9.79439e-05, No Iterations 2
smoothSolver:  Solving for Uz, Initial residual = 1, Final residual = 9.73975e-05, No Iterations 2
diagonal:  Solving for rhoE, Initial residual = 0, Final residual = 0, No Iterations 0
smoothSolver:  Solving for e, Initial residual = 0.000261524, Final residual = 1.50727e-07, No Iterations 2
smoothSolver:  Solving for epsilon, Initial residual = 2.89042e-05, Final residual = 2.66644e-09, No Iterations 2
smoothSolver:  Solving for k, Initial residual = 1, Final residual = 0.000159706, No Iterations 2
ExecutionTime = 0.22 s  ClockTime = 0 s

Mean and max Courant Numbers = 0.00422904 0.294347
deltaT = 4.7619e-07
Time = 1.90476e-06

diagonal:  Solving for rho, Initial residual = 0, Final residual = 0, No Iterations 0
diagonal:  Solving for rhoUx, Initial residual = 0, Final residual = 0, No Iterations 0
diagonal:  Solving for rhoUy, Initial residual = 0, Final residual = 0, No Iterations 0
diagonal:  Solving for rhoUz, Initial residual = 0, Final residual = 0, No Iterations 0
smoothSolver:  Solving for Ux, Initial residual = 9.316e-06, Final residual = 2.46272e-10, No Iterations 2
smoothSolver:  Solving for Uy, Initial residual = 0.0766691, Final residual = 1.3004e-06, No Iterations 2
smoothSolver:  Solving for Uz, Initial residual = 0.0857248, Final residual = 1.45878e-06, No Iterations 2
diagonal:  Solving for rhoE, Initial residual = 0, Final residual = 0, No Iterations 0
smoothSolver:  Solving for e, Initial residual = 9.97834e-06, Final residual = 5.03645e-10, No Iterations 2
smoothSolver:  Solving for epsilon, Initial residual = 2.69058e-06, Final residual = 2.05599e-11, No Iterations 2
smoothSolver:  Solving for k, Initial residual = 0.00250376, Final residual = 5.62913e-08, No Iterations 2
ExecutionTime = 0.31 s  ClockTime = 0 s

Mean and max Courant Numbers = 0.00140937 0.0529803
deltaT = 5.65476e-07
Time = 2.47024e-06

diagonal:  Solving for rho, Initial residual = 0, Final residual = 0, No Iterations 0
diagonal:  Solving for rhoUx, Initial residual = 0, Final residual = 0, No Iterations 0
diagonal:  Solving for rhoUy, Initial residual = 0, Final residual = 0, No Iterations 0
diagonal:  Solving for rhoUz, Initial residual = 0, Final residual = 0, No Iterations 0
smoothSolver:  Solving for Ux, Initial residual = 1.13572e-05, Final residual = 5.26436e-10, No Iterations 2
smoothSolver:  Solving for Uy, Initial residual = 0.081788, Final residual = 1.84404e-06, No Iterations 2
smoothSolver:  Solving for Uz, Initial residual = 0.131417, Final residual = 2.9751e-06, No Iterations 2
diagonal:  Solving for rhoE, Initial residual = 0, Final residual = 0, No Iterations 0
smoothSolver:  Solving for e, Initial residual = 1.06161e-05, Final residual = 1.12873e-09, No Iterations 2
smoothSolver:  Solving for epsilon, Initial residual = 3.22931e-06, Final residual = 4.04697e-11, No Iterations 2
smoothSolver:  Solving for k, Initial residual = 0.00228549, Final residual = 8.1882e-08, No Iterations 2
ExecutionTime = 0.38 s  ClockTime = 0 s

Mean and max Courant Numbers = 0.00167365 0.0645962
deltaT = 6.4925e-07
Time = 3.11949e-06

diagonal:  Solving for rho, Initial residual = 0, Final residual = 0, No Iterations 0
diagonal:  Solving for rhoUx, Initial residual = 0, Final residual = 0, No Iterations 0
diagonal:  Solving for rhoUy, Initial residual = 0, Final residual = 0, No Iterations 0
diagonal:  Solving for rhoUz, Initial residual = 0, Final residual = 0, No Iterations 0
smoothSolver:  Solving for Ux, Initial residual = 1.27432e-05, Final residual = 9.17232e-10, No Iterations 2
smoothSolver:  Solving for Uy, Initial residual = 0.0564626, Final residual = 2.33855e-06, No Iterations 2
smoothSolver:  Solving for Uz, Initial residual = 0.0912611, Final residual = 3.78668e-06, No Iterations 2
diagonal:  Solving for rhoE, Initial residual = 0, Final residual = 0, No Iterations 0
smoothSolver:  Solving for e, Initial residual = 1.21605e-05, Final residual = 1.64172e-09, No Iterations 2
smoothSolver:  Solving for epsilon, Initial residual = 3.71028e-06, Final residual = 7.21564e-11, No Iterations 2
smoothSolver:  Solving for k, Initial residual = 0.00213506, Final residual = 1.15005e-07, No Iterations 2
ExecutionTime = 0.45 s  ClockTime = 0 s

Mean and max Courant Numbers = 0.0019216 0.0741169
deltaT = 7.33935e-07
Time = 3.85342e-06

diagonal:  Solving for rho, Initial residual = 0, Final residual = 0, No Iterations 0
diagonal:  Solving for rhoUx, Initial residual = 0, Final residual = 0, No Iterations 0
diagonal:  Solving for rhoUy, Initial residual = 0, Final residual = 0, No Iterations 0
diagonal:  Solving for rhoUz, Initial residual = 0, Final residual = 0, No Iterations 0
smoothSolver:  Solving for Ux, Initial residual = 1.42487e-05, Final residual = 1.54896e-09, No Iterations 2
smoothSolver:  Solving for Uy, Initial residual = 0.0454459, Final residual = 3.0082e-06, No Iterations 2
smoothSolver:  Solving for Uz, Initial residual = 0.0712815, Final residual = 4.71875e-06, No Iterations 2
diagonal:  Solving for rhoE, Initial residual = 0, Final residual = 0, No Iterations 0
smoothSolver:  Solving for e, Initial residual = 1.37878e-05, Final residual = 2.56515e-09, No Iterations 2
smoothSolver:  Solving for epsilon, Initial residual = 4.2036e-06, Final residual = 1.25231e-10, No Iterations 2
smoothSolver:  Solving for k, Initial residual = 0.00198273, Final residual = 1.5532e-07, No Iterations 2
ExecutionTime = 0.5 s  ClockTime = 0 s

Mean and max Courant Numbers = 0.00217225 0.0841274
deltaT = 8.07329e-07
Time = 4.66075e-06

diagonal:  Solving for rho, Initial residual = 0, Final residual = 0, No Iterations 0
diagonal:  Solving for rhoUx, Initial residual = 0, Final residual = 0, No Iterations 0
diagonal:  Solving for rhoUy, Initial residual = 0, Final residual = 0, No Iterations 0
diagonal:  Solving for rhoUz, Initial residual = 0, Final residual = 0, No Iterations 0
smoothSolver:  Solving for Ux, Initial residual = 1.5523e-05, Final residual = 2.39196e-09, No Iterations 2
smoothSolver:  Solving for Uy, Initial residual = 0.0391688, Final residual = 3.80764e-06, No Iterations 2
smoothSolver:  Solving for Uz, Initial residual = 0.0593154, Final residual = 5.75943e-06, No Iterations 2
diagonal:  Solving for rhoE, Initial residual = 0, Final residual = 0, No Iterations 0
smoothSolver:  Solving for e, Initial residual = 1.53652e-05, Final residual = 3.77539e-09, No Iterations 2
smoothSolver:  Solving for epsilon, Initial residual = 4.64221e-06, Final residual = 2.03017e-10, No Iterations 2
smoothSolver:  Solving for k, Initial residual = 0.00181481, Final residual = 1.95473e-07, No Iterations 2
ExecutionTime = 0.58 s  ClockTime = 0 s

Mean and max Courant Numbers = 0.00238949 0.0928778
deltaT = 8.5218e-07
Time = 5.51293e-06

diagonal:  Solving for rho, Initial residual = 0, Final residual = 0, No Iterations 0
diagonal:  Solving for rhoUx, Initial residual = 0, Final residual = 0, No Iterations 0
diagonal:  Solving for rhoUy, Initial residual = 0, Final residual = 0, No Iterations 0
diagonal:  Solving for rhoUz, Initial residual = 0, Final residual = 0, No Iterations 0
smoothSolver:  Solving for Ux, Initial residual = 1.62312e-05, Final residual = 3.21844e-09, No Iterations 2
smoothSolver:  Solving for Uy, Initial residual = 0.0348706, Final residual = 4.43315e-06, No Iterations 2
smoothSolver:  Solving for Uz, Initial residual = 0.0507028, Final residual = 6.43599e-06, No Iterations 2
diagonal:  Solving for rhoE, Initial residual = 0, Final residual = 0, No Iterations 0
smoothSolver:  Solving for e, Initial residual = 1.64353e-05, Final residual = 5.00066e-09, No Iterations 2
smoothSolver:  Solving for epsilon, Initial residual = 4.92848e-06, Final residual = 2.91881e-10, No Iterations 2
smoothSolver:  Solving for k, Initial residual = 0.00161377, Final residual = 2.18275e-07, No Iterations 2
ExecutionTime = 0.69 s  ClockTime = 0 s

Mean and max Courant Numbers = 0.00252224 0.0984168
deltaT = 8.5218e-07
Time = 6.36511e-06

diagonal:  Solving for rho, Initial residual = 0, Final residual = 0, No Iterations 0
diagonal:  Solving for rhoUx, Initial residual = 0, Final residual = 0, No Iterations 0
diagonal:  Solving for rhoUy, Initial residual = 0, Final residual = 0, No Iterations 0
diagonal:  Solving for rhoUz, Initial residual = 0, Final residual = 0, No Iterations 0
smoothSolver:  Solving for Ux, Initial residual = 1.60599e-05, Final residual = 3.61062e-09, No Iterations 2
smoothSolver:  Solving for Uy, Initial residual = 0.0308674, Final residual = 4.47773e-06, No Iterations 2
smoothSolver:  Solving for Uz, Initial residual = 0.0429798, Final residual = 6.19322e-06, No Iterations 2
diagonal:  Solving for rhoE, Initial residual = 0, Final residual = 0, No Iterations 0
smoothSolver:  Solving for e, Initial residual = 1.67522e-05, Final residual = 5.69571e-09, No Iterations 2
smoothSolver:  Solving for epsilon, Initial residual = 4.96542e-06, Final residual = 3.54294e-10, No Iterations 2
smoothSolver:  Solving for k, Initial residual = 0.0013804, Final residual = 2.08532e-07, No Iterations 2
ExecutionTime = 0.76 s  ClockTime = 0 s

Mean and max Courant Numbers = 0.00252225 0.0987856
deltaT = 8.5218e-07
Time = 7.21729e-06

diagonal:  Solving for rho, Initial residual = 0, Final residual = 0, No Iterations 0
diagonal:  Solving for rhoUx, Initial residual = 0, Final residual = 0, No Iterations 0
diagonal:  Solving for rhoUy, Initial residual = 0, Final residual = 0, No Iterations 0
diagonal:  Solving for rhoUz, Initial residual = 0, Final residual = 0, No Iterations 0
smoothSolver:  Solving for Ux, Initial residual = 1.58245e-05, Final residual = 3.94685e-09, No Iterations 2
smoothSolver:  Solving for Uy, Initial residual = 0.028807, Final residual = 4.53839e-06, No Iterations 2
smoothSolver:  Solving for Uz, Initial residual = 0.0380898, Final residual = 5.95246e-06, No Iterations 2
diagonal:  Solving for rhoE, Initial residual = 0, Final residual = 0, No Iterations 0
smoothSolver:  Solving for e, Initial residual = 1.70259e-05, Final residual = 6.34662e-09, No Iterations 2
smoothSolver:  Solving for epsilon, Initial residual = 5.00713e-06, Final residual = 4.21726e-10, No Iterations 2
smoothSolver:  Solving for k, Initial residual = 0.00120276, Final residual = 1.99184e-07, No Iterations 2
ExecutionTime = 0.85 s  ClockTime = 1 s

Mean and max Courant Numbers = 0.00252226 0.0991484
deltaT = 8.5218e-07
Time = 8.06947e-06

diagonal:  Solving for rho, Initial residual = 0, Final residual = 0, No Iterations 0
diagonal:  Solving for rhoUx, Initial residual = 0, Final residual = 0, No Iterations 0
diagonal:  Solving for rhoUy, Initial residual = 0, Final residual = 0, No Iterations 0
diagonal:  Solving for rhoUz, Initial residual = 0, Final residual = 0, No Iterations 0
smoothSolver:  Solving for Ux, Initial residual = 1.55438e-05, Final residual = 4.21756e-09, No Iterations 2
smoothSolver:  Solving for Uy, Initial residual = 0.0279226, Final residual = 4.60381e-06, No Iterations 2
smoothSolver:  Solving for Uz, Initial residual = 0.0348446, Final residual = 5.71299e-06, No Iterations 2
diagonal:  Solving for rhoE, Initial residual = 0, Final residual = 0, No Iterations 0
smoothSolver:  Solving for e, Initial residual = 1.71984e-05, Final residual = 6.95504e-09, No Iterations 2
smoothSolver:  Solving for epsilon, Initial residual = 5.05274e-06, Final residual = 4.929e-10, No Iterations 2
smoothSolver:  Solving for k, Initial residual = 0.00106342, Final residual = 1.90043e-07, No Iterations 2
ExecutionTime = 0.94 s  ClockTime = 1 s

Mean and max Courant Numbers = 0.00252227 0.0995051
deltaT = 8.5218e-07
Time = 8.92165e-06

diagonal:  Solving for rho, Initial residual = 0, Final residual = 0, No Iterations 0
diagonal:  Solving for rhoUx, Initial residual = 0, Final residual = 0, No Iterations 0
diagonal:  Solving for rhoUy, Initial residual = 0, Final residual = 0, No Iterations 0
diagonal:  Solving for rhoUz, Initial residual = 0, Final residual = 0, No Iterations 0
smoothSolver:  Solving for Ux, Initial residual = 1.52004e-05, Final residual = 4.42806e-09, No Iterations 2
smoothSolver:  Solving for Uy, Initial residual = 0.0276356, Final residual = 4.72687e-06, No Iterations 2
smoothSolver:  Solving for Uz, Initial residual = 0.0325062, Final residual = 5.53103e-06, No Iterations 2
diagonal:  Solving for rhoE, Initial residual = 0, Final residual = 0, No Iterations 0
smoothSolver:  Solving for e, Initial residual = 1.72764e-05, Final residual = 7.5334e-09, No Iterations 2
smoothSolver:  Solving for epsilon, Initial residual = 5.10112e-06, Final residual = 5.65946e-10, No Iterations 2
smoothSolver:  Solving for k, Initial residual = 0.000951428, Final residual = 1.81098e-07, No Iterations 2
ExecutionTime = 1.01 s  ClockTime = 1 s

Mean and max Courant Numbers = 0.00252228 0.0998566
deltaT = 8.5218e-07
Time = 9.77384e-06

diagonal:  Solving for rho, Initial residual = 0, Final residual = 0, No Iterations 0
diagonal:  Solving for rhoUx, Initial residual = 0, Final residual = 0, No Iterations 0
diagonal:  Solving for rhoUy, Initial residual = 0, Final residual = 0, No Iterations 0
diagonal:  Solving for rhoUz, Initial residual = 0, Final residual = 0, No Iterations 0
smoothSolver:  Solving for Ux, Initial residual = 1.48041e-05, Final residual = 4.58559e-09, No Iterations 2
smoothSolver:  Solving for Uy, Initial residual = 0.0277218, Final residual = 4.86538e-06, No Iterations 2
smoothSolver:  Solving for Uz, Initial residual = 0.0306004, Final residual = 5.33873e-06, No Iterations 2
diagonal:  Solving for rhoE, Initial residual = 0, Final residual = 0, No Iterations 0
smoothSolver:  Solving for e, Initial residual = 1.72696e-05, Final residual = 8.00804e-09, No Iterations 2
smoothSolver:  Solving for epsilon, Initial residual = 5.15139e-06, Final residual = 6.41613e-10, No Iterations 2
smoothSolver:  Solving for k, Initial residual = 0.000859577, Final residual = 1.72267e-07, No Iterations 2
ExecutionTime = 1.07 s  ClockTime = 1 s

Mean and max Courant Numbers = 0.00252229 0.100203
deltaT = 7.86628e-07
Time = 1.05605e-05

diagonal:  Solving for rho, Initial residual = 0, Final residual = 0, No Iterations 0
diagonal:  Solving for rhoUx, Initial residual = 0, Final residual = 0, No Iterations 0
diagonal:  Solving for rhoUy, Initial residual = 0, Final residual = 0, No Iterations 0
diagonal:  Solving for rhoUz, Initial residual = 0, Final residual = 0, No Iterations 0
smoothSolver:  Solving for Ux, Initial residual = 1.32972e-05, Final residual = 3.71104e-09, No Iterations 2
smoothSolver:  Solving for Uy, Initial residual = 0.0260342, Final residual = 3.98935e-06, No Iterations 2
smoothSolver:  Solving for Uz, Initial residual = 0.0269154, Final residual = 4.09691e-06, No Iterations 2
diagonal:  Solving for rhoE, Initial residual = 0, Final residual = 0, No Iterations 0
smoothSolver:  Solving for e, Initial residual = 1.58695e-05, Final residual = 6.63233e-09, No Iterations 2
smoothSolver:  Solving for epsilon, Initial residual = 4.80415e-06, Final residual = 5.66047e-10, No Iterations 2
smoothSolver:  Solving for k, Initial residual = 0.000723137, Final residual = 1.29425e-07, No Iterations 2
ExecutionTime = 1.15 s  ClockTime = 1 s

Mean and max Courant Numbers = 0.00232828 0.0927847
deltaT = 7.86628e-07
Time = 1.13471e-05

diagonal:  Solving for rho, Initial residual = 0, Final residual = 0, No Iterations 0
diagonal:  Solving for rhoUx, Initial residual = 0, Final residual = 0, No Iterations 0
diagonal:  Solving for rhoUy, Initial residual = 0, Final residual = 0, No Iterations 0
diagonal:  Solving for rhoUz, Initial residual = 0, Final residual = 0, No Iterations 0
smoothSolver:  Solving for Ux, Initial residual = 1.29189e-05, Final residual = 3.74881e-09, No Iterations 2
smoothSolver:  Solving for Uy, Initial residual = 0.0266335, Final residual = 4.12044e-06, No Iterations 2
smoothSolver:  Solving for Uz, Initial residual = 0.0256865, Final residual = 3.94901e-06, No Iterations 2
diagonal:  Solving for rhoE, Initial residual = 0, Final residual = 0, No Iterations 0
smoothSolver:  Solving for e, Initial residual = 1.57412e-05, Final residual = 6.82286e-09, No Iterations 2
smoothSolver:  Solving for epsilon, Initial residual = 4.84867e-06, Final residual = 6.19774e-10, No Iterations 2
smoothSolver:  Solving for k, Initial residual = 0.000667543, Final residual = 1.23038e-07, No Iterations 2
ExecutionTime = 1.22 s  ClockTime = 1 s

Mean and max Courant Numbers = 0.00232828 0.0930729
deltaT = 7.86628e-07
Time = 1.21337e-05

diagonal:  Solving for rho, Initial residual = 0, Final residual = 0, No Iterations 0
diagonal:  Solving for rhoUx, Initial residual = 0, Final residual = 0, No Iterations 0
diagonal:  Solving for rhoUy, Initial residual = 0, Final residual = 0, No Iterations 0
diagonal:  Solving for rhoUz, Initial residual = 0, Final residual = 0, No Iterations 0
smoothSolver:  Solving for Ux, Initial residual = 1.2536e-05, Final residual = 3.77628e-09, No Iterations 2
smoothSolver:  Solving for Uy, Initial residual = 0.0274998, Final residual = 4.30873e-06, No Iterations 2
smoothSolver:  Solving for Uz, Initial residual = 0.0245821, Final residual = 3.82732e-06, No Iterations 2
diagonal:  Solving for rhoE, Initial residual = 0, Final residual = 0, No Iterations 0
smoothSolver:  Solving for e, Initial residual = 1.55687e-05, Final residual = 6.9491e-09, No Iterations 2
smoothSolver:  Solving for epsilon, Initial residual = 4.89326e-06, Final residual = 6.71019e-10, No Iterations 2
smoothSolver:  Solving for k, Initial residual = 0.000619525, Final residual = 1.16726e-07, No Iterations 2
ExecutionTime = 1.32 s  ClockTime = 1 s

Mean and max Courant Numbers = 0.00232829 0.0933575
deltaT = 7.86628e-07
Time = 1.29203e-05

diagonal:  Solving for rho, Initial residual = 0, Final residual = 0, No Iterations 0
diagonal:  Solving for rhoUx, Initial residual = 0, Final residual = 0, No Iterations 0
diagonal:  Solving for rhoUy, Initial residual = 0, Final residual = 0, No Iterations 0
diagonal:  Solving for rhoUz, Initial residual = 0, Final residual = 0, No Iterations 0
smoothSolver:  Solving for Ux, Initial residual = 1.21373e-05, Final residual = 3.78564e-09, No Iterations 2
smoothSolver:  Solving for Uy, Initial residual = 0.0246835, Final residual = 3.91714e-06, No Iterations 2
smoothSolver:  Solving for Uz, Initial residual = 0.023574, Final residual = 3.71512e-06, No Iterations 2
diagonal:  Solving for rhoE, Initial residual = 0, Final residual = 0, No Iterations 0
smoothSolver:  Solving for e, Initial residual = 1.53589e-05, Final residual = 7.02163e-09, No Iterations 2
smoothSolver:  Solving for epsilon, Initial residual = 4.93762e-06, Final residual = 7.19704e-10, No Iterations 2
smoothSolver:  Solving for k, Initial residual = 0.000577694, Final residual = 1.10479e-07, No Iterations 2
ExecutionTime = 1.39 s  ClockTime = 1 s

Mean and max Courant Numbers = 0.0023283 0.0936389
deltaT = 7.86628e-07
Time = 1.3707e-05

diagonal:  Solving for rho, Initial residual = 0, Final residual = 0, No Iterations 0
diagonal:  Solving for rhoUx, Initial residual = 0, Final residual = 0, No Iterations 0
diagonal:  Solving for rhoUy, Initial residual = 0, Final residual = 0, No Iterations 0
diagonal:  Solving for rhoUz, Initial residual = 0, Final residual = 0, No Iterations 0
smoothSolver:  Solving for Ux, Initial residual = 1.17276e-05, Final residual = 3.77498e-09, No Iterations 2
smoothSolver:  Solving for Uy, Initial residual = 0.0221125, Final residual = 3.52819e-06, No Iterations 2
smoothSolver:  Solving for Uz, Initial residual = 0.0226642, Final residual = 3.58978e-06, No Iterations 2
diagonal:  Solving for rhoE, Initial residual = 0, Final residual = 0, No Iterations 0
smoothSolver:  Solving for e, Initial residual = 1.51175e-05, Final residual = 7.03146e-09, No Iterations 2
smoothSolver:  Solving for epsilon, Initial residual = 4.9817e-06, Final residual = 7.65126e-10, No Iterations 2
smoothSolver:  Solving for k, Initial residual = 0.000540968, Final residual = 1.04278e-07, No Iterations 2
ExecutionTime = 1.47 s  ClockTime = 1 s

Mean and max Courant Numbers = 0.0023283 0.0939173
deltaT = 7.86628e-07
Time = 1.44936e-05

diagonal:  Solving for rho, Initial residual = 0, Final residual = 0, No Iterations 0
diagonal:  Solving for rhoUx, Initial residual = 0, Final residual = 0, No Iterations 0
diagonal:  Solving for rhoUy, Initial residual = 0, Final residual = 0, No Iterations 0
diagonal:  Solving for rhoUz, Initial residual = 0, Final residual = 0, No Iterations 0
smoothSolver:  Solving for Ux, Initial residual = 1.13113e-05, Final residual = 3.74678e-09, No Iterations 2
smoothSolver:  Solving for Uy, Initial residual = 0.0199042, Final residual = 3.1789e-06, No Iterations 2
smoothSolver:  Solving for Uz, Initial residual = 0.0218078, Final residual = 3.45519e-06, No Iterations 2
diagonal:  Solving for rhoE, Initial residual = 0, Final residual = 0, No Iterations 0
smoothSolver:  Solving for e, Initial residual = 1.48498e-05, Final residual = 6.98468e-09, No Iterations 2
smoothSolver:  Solving for epsilon, Initial residual = 5.02543e-06, Final residual = 8.06939e-10, No Iterations 2
smoothSolver:  Solving for k, Initial residual = 0.000508503, Final residual = 9.81561e-08, No Iterations 2
ExecutionTime = 1.54 s  ClockTime = 1 s

Mean and max Courant Numbers = 0.00232831 0.0941928
deltaT = 7.86628e-07
Time = 1.52802e-05

diagonal:  Solving for rho, Initial residual = 0, Final residual = 0, No Iterations 0
diagonal:  Solving for rhoUx, Initial residual = 0, Final residual = 0, No Iterations 0
diagonal:  Solving for rhoUy, Initial residual = 0, Final residual = 0, No Iterations 0
diagonal:  Solving for rhoUz, Initial residual = 0, Final residual = 0, No Iterations 0
smoothSolver:  Solving for Ux, Initial residual = 1.08929e-05, Final residual = 3.70437e-09, No Iterations 2
smoothSolver:  Solving for Uy, Initial residual = 0.0179905, Final residual = 2.8631e-06, No Iterations 2
smoothSolver:  Solving for Uz, Initial residual = 0.0209967, Final residual = 3.31255e-06, No Iterations 2
diagonal:  Solving for rhoE, Initial residual = 0, Final residual = 0, No Iterations 0
smoothSolver:  Solving for e, Initial residual = 1.45611e-05, Final residual = 6.89107e-09, No Iterations 2
smoothSolver:  Solving for epsilon, Initial residual = 5.0684e-06, Final residual = 8.44792e-10, No Iterations 2
smoothSolver:  Solving for k, Initial residual = 0.000479625, Final residual = 9.21383e-08, No Iterations 2
ExecutionTime = 1.63 s  ClockTime = 1 s

Mean and max Courant Numbers = 0.00232832 0.0944652
deltaT = 7.86628e-07
Time = 1.60669e-05

diagonal:  Solving for rho, Initial residual = 0, Final residual = 0, No Iterations 0
diagonal:  Solving for rhoUx, Initial residual = 0, Final residual = 0, No Iterations 0
diagonal:  Solving for rhoUy, Initial residual = 0, Final residual = 0, No Iterations 0
diagonal:  Solving for rhoUz, Initial residual = 0, Final residual = 0, No Iterations 0
smoothSolver:  Solving for Ux, Initial residual = 1.04759e-05, Final residual = 3.64972e-09, No Iterations 2
smoothSolver:  Solving for Uy, Initial residual = 0.0164013, Final residual = 2.57343e-06, No Iterations 2
smoothSolver:  Solving for Uz, Initial residual = 0.0203237, Final residual = 3.15853e-06, No Iterations 2
diagonal:  Solving for rhoE, Initial residual = 0, Final residual = 0, No Iterations 0
smoothSolver:  Solving for e, Initial residual = 1.42558e-05, Final residual = 6.75809e-09, No Iterations 2
smoothSolver:  Solving for epsilon, Initial residual = 5.11059e-06, Final residual = 8.7838e-10, No Iterations 2
smoothSolver:  Solving for k, Initial residual = 0.000453796, Final residual = 8.62499e-08, No Iterations 2
ExecutionTime = 1.74 s  ClockTime = 1 s

Mean and max Courant Numbers = 0.00232833 0.0947348
deltaT = 7.86628e-07
Time = 1.68535e-05

diagonal:  Solving for rho, Initial residual = 0, Final residual = 0, No Iterations 0
diagonal:  Solving for rhoUx, Initial residual = 0, Final residual = 0, No Iterations 0
diagonal:  Solving for rhoUy, Initial residual = 0, Final residual = 0, No Iterations 0
diagonal:  Solving for rhoUz, Initial residual = 0, Final residual = 0, No Iterations 0
smoothSolver:  Solving for Ux, Initial residual = 1.01511e-05, Final residual = 3.59018e-09, No Iterations 2
smoothSolver:  Solving for Uy, Initial residual = 0.0150308, Final residual = 2.31091e-06, No Iterations 2
smoothSolver:  Solving for Uz, Initial residual = 0.0197135, Final residual = 2.99946e-06, No Iterations 2
diagonal:  Solving for rhoE, Initial residual = 0, Final residual = 0, No Iterations 0
smoothSolver:  Solving for e, Initial residual = 1.39403e-05, Final residual = 6.59319e-09, No Iterations 2
smoothSolver:  Solving for epsilon, Initial residual = 5.15187e-06, Final residual = 9.07498e-10, No Iterations 2
smoothSolver:  Solving for k, Initial residual = 0.000430575, Final residual = 8.05153e-08, No Iterations 2
ExecutionTime = 1.82 s  ClockTime = 2 s

Mean and max Courant Numbers = 0.00232833 0.0950039
deltaT = 7.86628e-07
Time = 1.76401e-05

diagonal:  Solving for rho, Initial residual = 0, Final residual = 0, No Iterations 0
diagonal:  Solving for rhoUx, Initial residual = 0, Final residual = 0, No Iterations 0
diagonal:  Solving for rhoUy, Initial residual = 0, Final residual = 0, No Iterations 0
diagonal:  Solving for rhoUz, Initial residual = 0, Final residual = 0, No Iterations 0
smoothSolver:  Solving for Ux, Initial residual = 9.88646e-06, Final residual = 3.52455e-09, No Iterations 2
smoothSolver:  Solving for Uy, Initial residual = 0.013816, Final residual = 2.0714e-06, No Iterations 2
smoothSolver:  Solving for Uz, Initial residual = 0.0191221, Final residual = 2.83476e-06, No Iterations 2
diagonal:  Solving for rhoE, Initial residual = 0, Final residual = 0, No Iterations 0
smoothSolver:  Solving for e, Initial residual = 1.36201e-05, Final residual = 6.4048e-09, No Iterations 2
smoothSolver:  Solving for epsilon, Initial residual = 5.19182e-06, Final residual = 9.32066e-10, No Iterations 2
smoothSolver:  Solving for k, Initial residual = 0.000409603, Final residual = 7.49595e-08, No Iterations 2
ExecutionTime = 1.9 s  ClockTime = 2 s

Mean and max Courant Numbers = 0.00232834 0.0953067
deltaT = 7.86628e-07
Time = 1.84267e-05

diagonal:  Solving for rho, Initial residual = 0, Final residual = 0, No Iterations 0
diagonal:  Solving for rhoUx, Initial residual = 0, Final residual = 0, No Iterations 0
diagonal:  Solving for rhoUy, Initial residual = 0, Final residual = 0, No Iterations 0
diagonal:  Solving for rhoUz, Initial residual = 0, Final residual = 0, No Iterations 0
smoothSolver:  Solving for Ux, Initial residual = 9.61964e-06, Final residual = 3.45189e-09, No Iterations 2
smoothSolver:  Solving for Uy, Initial residual = 0.0127539, Final residual = 1.8538e-06, No Iterations 2
smoothSolver:  Solving for Uz, Initial residual = 0.0185852, Final residual = 2.66751e-06, No Iterations 2
diagonal:  Solving for rhoE, Initial residual = 0, Final residual = 0, No Iterations 0
smoothSolver:  Solving for e, Initial residual = 1.32955e-05, Final residual = 6.19977e-09, No Iterations 2
smoothSolver:  Solving for epsilon, Initial residual = 5.232e-06, Final residual = 9.52156e-10, No Iterations 2
smoothSolver:  Solving for k, Initial residual = 0.00039058, Final residual = 6.9615e-08, No Iterations 2
ExecutionTime = 1.98 s  ClockTime = 2 s

Mean and max Courant Numbers = 0.00232835 0.0958896
deltaT = 7.86628e-07
Time = 1.92134e-05

diagonal:  Solving for rho, Initial residual = 0, Final residual = 0, No Iterations 0
diagonal:  Solving for rhoUx, Initial residual = 0, Final residual = 0, No Iterations 0
diagonal:  Solving for rhoUy, Initial residual = 0, Final residual = 0, No Iterations 0
diagonal:  Solving for rhoUz, Initial residual = 0, Final residual = 0, No Iterations 0
smoothSolver:  Solving for Ux, Initial residual = 9.35245e-06, Final residual = 3.37338e-09, No Iterations 2
smoothSolver:  Solving for Uy, Initial residual = 0.0118289, Final residual = 1.65689e-06, No Iterations 2
smoothSolver:  Solving for Uz, Initial residual = 0.0180961, Final residual = 2.50322e-06, No Iterations 2
diagonal:  Solving for rhoE, Initial residual = 0, Final residual = 0, No Iterations 0
smoothSolver:  Solving for e, Initial residual = 1.29651e-05, Final residual = 5.98452e-09, No Iterations 2
smoothSolver:  Solving for epsilon, Initial residual = 5.27163e-06, Final residual = 9.67887e-10, No Iterations 2
smoothSolver:  Solving for k, Initial residual = 0.000373249, Final residual = 6.44942e-08, No Iterations 2
ExecutionTime = 2.05 s  ClockTime = 2 s

Mean and max Courant Numbers = 0.00232836 0.0964714
deltaT = 7.86628e-07
Time = 2e-05

diagonal:  Solving for rho, Initial residual = 0, Final residual = 0, No Iterations 0
diagonal:  Solving for rhoUx, Initial residual = 0, Final residual = 0, No Iterations 0
diagonal:  Solving for rhoUy, Initial residual = 0, Final residual = 0, No Iterations 0
diagonal:  Solving for rhoUz, Initial residual = 0, Final residual = 0, No Iterations 0
smoothSolver:  Solving for Ux, Initial residual = 9.08631e-06, Final residual = 3.28963e-09, No Iterations 2
smoothSolver:  Solving for Uy, Initial residual = 0.0109984, Final residual = 1.4938e-06, No Iterations 2
smoothSolver:  Solving for Uz, Initial residual = 0.0176167, Final residual = 2.36784e-06, No Iterations 2
diagonal:  Solving for rhoE, Initial residual = 0, Final residual = 0, No Iterations 0
smoothSolver:  Solving for e, Initial residual = 1.26306e-05, Final residual = 5.76202e-09, No Iterations 2
smoothSolver:  Solving for epsilon, Initial residual = 5.3098e-06, Final residual = 9.79265e-10, No Iterations 2
smoothSolver:  Solving for k, Initial residual = 0.000357397, Final residual = 5.96066e-08, No Iterations 2
ExecutionTime = 2.24 s  ClockTime = 2 s

Mean and max Courant Numbers = 0.00232836 0.0970513
deltaT = 8e-07
Time = 2.08e-05

diagonal:  Solving for rho, Initial residual = 0, Final residual = 0, No Iterations 0
diagonal:  Solving for rhoUx, Initial residual = 0, Final residual = 0, No Iterations 0
diagonal:  Solving for rhoUy, Initial residual = 0, Final residual = 0, No Iterations 0
diagonal:  Solving for rhoUz, Initial residual = 0, Final residual = 0, No Iterations 0
smoothSolver:  Solving for Ux, Initial residual = 8.96976e-06, Final residual = 3.36335e-09, No Iterations 2
smoothSolver:  Solving for Uy, Initial residual = 0.0104107, Final residual = 1.41763e-06, No Iterations 2
smoothSolver:  Solving for Uz, Initial residual = 0.0174301, Final residual = 2.34694e-06, No Iterations 2
diagonal:  Solving for rhoE, Initial residual = 0, Final residual = 0, No Iterations 0
smoothSolver:  Solving for e, Initial residual = 1.25025e-05, Final residual = 5.81601e-09, No Iterations 2
smoothSolver:  Solving for epsilon, Initial residual = 5.4363e-06, Final residual = 1.03625e-09, No Iterations 2
smoothSolver:  Solving for k, Initial residual = 0.000348655, Final residual = 5.77488e-08, No Iterations 2
ExecutionTime = 2.33 s  ClockTime = 2 s

Mean and max Courant Numbers = 0.00236795 0.099298
deltaT = 8e-07
Time = 2.16e-05

diagonal:  Solving for rho, Initial residual = 0, Final residual = 0, No Iterations 0
diagonal:  Solving for rhoUx, Initial residual = 0, Final residual = 0, No Iterations 0
diagonal:  Solving for rhoUy, Initial residual = 0, Final residual = 0, No Iterations 0
diagonal:  Solving for rhoUz, Initial residual = 0, Final residual = 0, No Iterations 0
smoothSolver:  Solving for Ux, Initial residual = 8.7003e-06, Final residual = 3.27109e-09, No Iterations 2
smoothSolver:  Solving for Uy, Initial residual = 0.00970803, Final residual = 1.27889e-06, No Iterations 2
smoothSolver:  Solving for Uz, Initial residual = 0.0169579, Final residual = 2.20712e-06, No Iterations 2
diagonal:  Solving for rhoE, Initial residual = 0, Final residual = 0, No Iterations 0
smoothSolver:  Solving for e, Initial residual = 1.21543e-05, Final residual = 5.57438e-09, No Iterations 2
smoothSolver:  Solving for epsilon, Initial residual = 5.4718e-06, Final residual = 1.03927e-09, No Iterations 2
smoothSolver:  Solving for k, Initial residual = 0.000334818, Final residual = 5.30757e-08, No Iterations 2
ExecutionTime = 2.42 s  ClockTime = 2 s

Mean and max Courant Numbers = 0.00236796 0.0998906
deltaT = 8e-07
Time = 2.24e-05

diagonal:  Solving for rho, Initial residual = 0, Final residual = 0, No Iterations 0
diagonal:  Solving for rhoUx, Initial residual = 0, Final residual = 0, No Iterations 0
diagonal:  Solving for rhoUy, Initial residual = 0, Final residual = 0, No Iterations 0
diagonal:  Solving for rhoUz, Initial residual = 0, Final residual = 0, No Iterations 0
smoothSolver:  Solving for Ux, Initial residual = 8.43485e-06, Final residual = 3.17987e-09, No Iterations 2
smoothSolver:  Solving for Uy, Initial residual = 0.00907486, Final residual = 1.15278e-06, No Iterations 2
smoothSolver:  Solving for Uz, Initial residual = 0.0165256, Final residual = 2.07014e-06, No Iterations 2
diagonal:  Solving for rhoE, Initial residual = 0, Final residual = 0, No Iterations 0
smoothSolver:  Solving for e, Initial residual = 1.18074e-05, Final residual = 5.33496e-09, No Iterations 2
smoothSolver:  Solving for epsilon, Initial residual = 5.50493e-06, Final residual = 1.03846e-09, No Iterations 2
smoothSolver:  Solving for k, Initial residual = 0.000322062, Final residual = 4.86918e-08, No Iterations 2
ExecutionTime = 2.51 s  ClockTime = 2 s

Mean and max Courant Numbers = 0.00236797 0.100478
deltaT = 7.65217e-07
Time = 2.31652e-05

diagonal:  Solving for rho, Initial residual = 0, Final residual = 0, No Iterations 0
diagonal:  Solving for rhoUx, Initial residual = 0, Final residual = 0, No Iterations 0
diagonal:  Solving for rhoUy, Initial residual = 0, Final residual = 0, No Iterations 0
diagonal:  Solving for rhoUz, Initial residual = 0, Final residual = 0, No Iterations 0
smoothSolver:  Solving for Ux, Initial residual = 7.82473e-06, Final residual = 2.70801e-09, No Iterations 2
smoothSolver:  Solving for Uy, Initial residual = 0.00815661, Final residual = 9.13724e-07, No Iterations 2
smoothSolver:  Solving for Uz, Initial residual = 0.0154159, Final residual = 1.70223e-06, No Iterations 2
diagonal:  Solving for rhoE, Initial residual = 0, Final residual = 0, No Iterations 0
smoothSolver:  Solving for e, Initial residual = 1.09606e-05, Final residual = 4.47661e-09, No Iterations 2
smoothSolver:  Solving for epsilon, Initial residual = 5.2962e-06, Final residual = 9.07126e-10, No Iterations 2
smoothSolver:  Solving for k, Initial residual = 0.000296825, Final residual = 3.91527e-08, No Iterations 2
ExecutionTime = 2.59 s  ClockTime = 2 s

Mean and max Courant Numbers = 0.00226502 0.096641
deltaT = 7.65217e-07
Time = 2.39304e-05

diagonal:  Solving for rho, Initial residual = 0, Final residual = 0, No Iterations 0
diagonal:  Solving for rhoUx, Initial residual = 0, Final residual = 0, No Iterations 0
diagonal:  Solving for rhoUy, Initial residual = 0, Final residual = 0, No Iterations 0
diagonal:  Solving for rhoUz, Initial residual = 0, Final residual = 0, No Iterations 0
smoothSolver:  Solving for Ux, Initial residual = 7.59382e-06, Final residual = 2.62536e-09, No Iterations 2
smoothSolver:  Solving for Uy, Initial residual = 0.00767306, Final residual = 8.26864e-07, No Iterations 2
smoothSolver:  Solving for Uz, Initial residual = 0.0149914, Final residual = 1.59293e-06, No Iterations 2
diagonal:  Solving for rhoE, Initial residual = 0, Final residual = 0, No Iterations 0
smoothSolver:  Solving for e, Initial residual = 1.06301e-05, Final residual = 4.28408e-09, No Iterations 2
smoothSolver:  Solving for epsilon, Initial residual = 5.32187e-06, Final residual = 9.0102e-10, No Iterations 2
smoothSolver:  Solving for k, Initial residual = 0.000286798, Final residual = 3.59496e-08, No Iterations 2
ExecutionTime = 2.69 s  ClockTime = 2 s

Mean and max Courant Numbers = 0.00226502 0.0971733
deltaT = 7.65217e-07
Time = 2.46957e-05

diagonal:  Solving for rho, Initial residual = 0, Final residual = 0, No Iterations 0
diagonal:  Solving for rhoUx, Initial residual = 0, Final residual = 0, No Iterations 0
diagonal:  Solving for rhoUy, Initial residual = 0, Final residual = 0, No Iterations 0
diagonal:  Solving for rhoUz, Initial residual = 0, Final residual = 0, No Iterations 0
smoothSolver:  Solving for Ux, Initial residual = 7.41321e-06, Final residual = 2.54081e-09, No Iterations 2
smoothSolver:  Solving for Uy, Initial residual = 0.00723021, Final residual = 7.5183e-07, No Iterations 2
smoothSolver:  Solving for Uz, Initial residual = 0.0145826, Final residual = 1.49848e-06, No Iterations 2
diagonal:  Solving for rhoE, Initial residual = 0, Final residual = 0, No Iterations 0
smoothSolver:  Solving for e, Initial residual = 1.03015e-05, Final residual = 4.09787e-09, No Iterations 2
smoothSolver:  Solving for epsilon, Initial residual = 5.34591e-06, Final residual = 8.92799e-10, No Iterations 2
smoothSolver:  Solving for k, Initial residual = 0.000277455, Final residual = 3.29769e-08, No Iterations 2
ExecutionTime = 2.77 s  ClockTime = 2 s

Mean and max Courant Numbers = 0.00226503 0.0976927
deltaT = 7.65217e-07
Time = 2.54609e-05

diagonal:  Solving for rho, Initial residual = 0, Final residual = 0, No Iterations 0
diagonal:  Solving for rhoUx, Initial residual = 0, Final residual = 0, No Iterations 0
diagonal:  Solving for rhoUy, Initial residual = 0, Final residual = 0, No Iterations 0
diagonal:  Solving for rhoUz, Initial residual = 0, Final residual = 0, No Iterations 0
smoothSolver:  Solving for Ux, Initial residual = 7.32179e-06, Final residual = 2.45483e-09, No Iterations 2
smoothSolver:  Solving for Uy, Initial residual = 0.00685531, Final residual = 6.97561e-07, No Iterations 2
smoothSolver:  Solving for Uz, Initial residual = 0.01426, Final residual = 1.44262e-06, No Iterations 2
diagonal:  Solving for rhoE, Initial residual = 0, Final residual = 0, No Iterations 0
smoothSolver:  Solving for e, Initial residual = 9.97939e-06, Final residual = 3.91847e-09, No Iterations 2
smoothSolver:  Solving for epsilon, Initial residual = 5.36708e-06, Final residual = 8.82771e-10, No Iterations 2
smoothSolver:  Solving for k, Initial residual = 0.000268735, Final residual = 3.02274e-08, No Iterations 2
ExecutionTime = 2.83 s  ClockTime = 3 s

Mean and max Courant Numbers = 0.00226504 0.0981993
deltaT = 7.65217e-07
Time = 2.62261e-05

diagonal:  Solving for rho, Initial residual = 0, Final residual = 0, No Iterations 0
diagonal:  Solving for rhoUx, Initial residual = 0, Final residual = 0, No Iterations 0
diagonal:  Solving for rhoUy, Initial residual = 0, Final residual = 0, No Iterations 0
diagonal:  Solving for rhoUz, Initial residual = 0, Final residual = 0, No Iterations 0
smoothSolver:  Solving for Ux, Initial residual = 7.24681e-06, Final residual = 2.36922e-09, No Iterations 2
smoothSolver:  Solving for Uy, Initial residual = 0.00650957, Final residual = 6.53868e-07, No Iterations 2
smoothSolver:  Solving for Uz, Initial residual = 0.0139314, Final residual = 1.39143e-06, No Iterations 2
diagonal:  Solving for rhoE, Initial residual = 0, Final residual = 0, No Iterations 0
smoothSolver:  Solving for e, Initial residual = 9.66418e-06, Final residual = 3.74652e-09, No Iterations 2
smoothSolver:  Solving for epsilon, Initial residual = 5.38573e-06, Final residual = 8.71242e-10, No Iterations 2
smoothSolver:  Solving for k, Initial residual = 0.000260581, Final residual = 2.76932e-08, No Iterations 2
ExecutionTime = 2.89 s  ClockTime = 3 s

Mean and max Courant Numbers = 0.00226504 0.0986927
deltaT = 7.65217e-07
Time = 2.69913e-05

diagonal:  Solving for rho, Initial residual = 0, Final residual = 0, No Iterations 0
diagonal:  Solving for rhoUx, Initial residual = 0, Final residual = 0, No Iterations 0
diagonal:  Solving for rhoUy, Initial residual = 0, Final residual = 0, No Iterations 0
diagonal:  Solving for rhoUz, Initial residual = 0, Final residual = 0, No Iterations 0
smoothSolver:  Solving for Ux, Initial residual = 7.22219e-06, Final residual = 2.28531e-09, No Iterations 2
smoothSolver:  Solving for Uy, Initial residual = 0.00618981, Final residual = 6.17086e-07, No Iterations 2
smoothSolver:  Solving for Uz, Initial residual = 0.0136044, Final residual = 1.35196e-06, No Iterations 2
diagonal:  Solving for rhoE, Initial residual = 0, Final residual = 0, No Iterations 0
smoothSolver:  Solving for e, Initial residual = 9.35614e-06, Final residual = 3.58224e-09, No Iterations 2
smoothSolver:  Solving for epsilon, Initial residual = 5.40169e-06, Final residual = 8.58685e-10, No Iterations 2
smoothSolver:  Solving for k, Initial residual = 0.000252943, Final residual = 2.53652e-08, No Iterations 2
ExecutionTime = 2.96 s  ClockTime = 3 s

Mean and max Courant Numbers = 0.00226505 0.0991729
deltaT = 7.65217e-07
Time = 2.77565e-05

diagonal:  Solving for rho, Initial residual = 0, Final residual = 0, No Iterations 0
diagonal:  Solving for rhoUx, Initial residual = 0, Final residual = 0, No Iterations 0
diagonal:  Solving for rhoUy, Initial residual = 0, Final residual = 0, No Iterations 0
diagonal:  Solving for rhoUz, Initial residual = 0, Final residual = 0, No Iterations 0
smoothSolver:  Solving for Ux, Initial residual = 7.18865e-06, Final residual = 2.1989e-09, No Iterations 2
smoothSolver:  Solving for Uy, Initial residual = 0.00589376, Final residual = 5.85621e-07, No Iterations 2
smoothSolver:  Solving for Uz, Initial residual = 0.0132868, Final residual = 1.31562e-06, No Iterations 2
diagonal:  Solving for rhoE, Initial residual = 0, Final residual = 0, No Iterations 0
smoothSolver:  Solving for e, Initial residual = 9.05549e-06, Final residual = 3.42662e-09, No Iterations 2
smoothSolver:  Solving for epsilon, Initial residual = 5.41553e-06, Final residual = 8.45818e-10, No Iterations 2
smoothSolver:  Solving for k, Initial residual = 0.000245778, Final residual = 2.32331e-08, No Iterations 2
ExecutionTime = 3.02 s  ClockTime = 3 s

Mean and max Courant Numbers = 0.00226506 0.0996397
deltaT = 7.65217e-07
Time = 2.85217e-05

diagonal:  Solving for rho, Initial residual = 0, Final residual = 0, No Iterations 0
diagonal:  Solving for rhoUx, Initial residual = 0, Final residual = 0, No Iterations 0
diagonal:  Solving for rhoUy, Initial residual = 0, Final residual = 0, No Iterations 0
diagonal:  Solving for rhoUz, Initial residual = 0, Final residual = 0, No Iterations 0
smoothSolver:  Solving for Ux, Initial residual = 7.14641e-06, Final residual = 2.11169e-09, No Iterations 2
smoothSolver:  Solving for Uy, Initial residual = 0.00562892, Final residual = 5.55923e-07, No Iterations 2
smoothSolver:  Solving for Uz, Initial residual = 0.0130063, Final residual = 1.27972e-06, No Iterations 2
diagonal:  Solving for rhoE, Initial residual = 0, Final residual = 0, No Iterations 0
smoothSolver:  Solving for e, Initial residual = 8.76434e-06, Final residual = 3.28835e-09, No Iterations 2
smoothSolver:  Solving for epsilon, Initial residual = 5.42725e-06, Final residual = 8.32259e-10, No Iterations 2
smoothSolver:  Solving for k, Initial residual = 0.000239047, Final residual = 2.12857e-08, No Iterations 2
ExecutionTime = 3.09 s  ClockTime = 3 s

Mean and max Courant Numbers = 0.00226506 0.100093
deltaT = 7.17391e-07
Time = 2.92391e-05

diagonal:  Solving for rho, Initial residual = 0, Final residual = 0, No Iterations 0
diagonal:  Solving for rhoUx, Initial residual = 0, Final residual = 0, No Iterations 0
diagonal:  Solving for rhoUy, Initial residual = 0, Final residual = 0, No Iterations 0
diagonal:  Solving for rhoUz, Initial residual = 0, Final residual = 0, No Iterations 0
smoothSolver:  Solving for Ux, Initial residual = 6.65394e-06, Final residual = 1.67407e-09, No Iterations 2
smoothSolver:  Solving for Uy, Initial residual = 0.00508575, Final residual = 4.37107e-07, No Iterations 2
smoothSolver:  Solving for Uz, Initial residual = 0.0119736, Final residual = 1.02612e-06, No Iterations 2
diagonal:  Solving for rhoE, Initial residual = 0, Final residual = 0, No Iterations 0
smoothSolver:  Solving for e, Initial residual = 7.95676e-06, Final residual = 2.62715e-09, No Iterations 2
smoothSolver:  Solving for epsilon, Initial residual = 5.09794e-06, Final residual = 6.76007e-10, No Iterations 2
smoothSolver:  Solving for k, Initial residual = 0.00021821, Final residual = 1.61514e-08, No Iterations 2
ExecutionTime = 3.15 s  ClockTime = 3 s

Mean and max Courant Numbers = 0.0021235 0.0942266
deltaT = 7.17391e-07
Time = 2.99565e-05

diagonal:  Solving for rho, Initial residual = 0, Final residual = 0, No Iterations 0
diagonal:  Solving for rhoUx, Initial residual = 0, Final residual = 0, No Iterations 0
diagonal:  Solving for rhoUy, Initial residual = 0, Final residual = 0, No Iterations 0
diagonal:  Solving for rhoUz, Initial residual = 0, Final residual = 0, No Iterations 0
smoothSolver:  Solving for Ux, Initial residual = 6.60301e-06, Final residual = 1.60693e-09, No Iterations 2
smoothSolver:  Solving for Uy, Initial residual = 0.00492187, Final residual = 4.17088e-07, No Iterations 2
smoothSolver:  Solving for Uz, Initial residual = 0.011796, Final residual = 9.98301e-07, No Iterations 2
diagonal:  Solving for rhoE, Initial residual = 0, Final residual = 0, No Iterations 0
smoothSolver:  Solving for e, Initial residual = 7.71867e-06, Final residual = 2.54199e-09, No Iterations 2
smoothSolver:  Solving for epsilon, Initial residual = 5.10384e-06, Final residual = 6.64881e-10, No Iterations 2
smoothSolver:  Solving for k, Initial residual = 0.000212953, Final residual = 1.48833e-08, No Iterations 2
ExecutionTime = 3.21 s  ClockTime = 3 s

Mean and max Courant Numbers = 0.00212351 0.0946069
deltaT = 7.17391e-07
Time = 3.06739e-05

diagonal:  Solving for rho, Initial residual = 0, Final residual = 0, No Iterations 0
diagonal:  Solving for rhoUx, Initial residual = 0, Final residual = 0, No Iterations 0
diagonal:  Solving for rhoUy, Initial residual = 0, Final residual = 0, No Iterations 0
diagonal:  Solving for rhoUz, Initial residual = 0, Final residual = 0, No Iterations 0
smoothSolver:  Solving for Ux, Initial residual = 6.54637e-06, Final residual = 1.54041e-09, No Iterations 2
smoothSolver:  Solving for Uy, Initial residual = 0.00476735, Final residual = 3.99449e-07, No Iterations 2
smoothSolver:  Solving for Uz, Initial residual = 0.0116092, Final residual = 9.71329e-07, No Iterations 2
diagonal:  Solving for rhoE, Initial residual = 0, Final residual = 0, No Iterations 0
smoothSolver:  Solving for e, Initial residual = 7.48618e-06, Final residual = 2.45997e-09, No Iterations 2
smoothSolver:  Solving for epsilon, Initial residual = 5.10784e-06, Final residual = 6.53688e-10, No Iterations 2
smoothSolver:  Solving for k, Initial residual = 0.000207982, Final residual = 1.37358e-08, No Iterations 2
ExecutionTime = 3.29 s  ClockTime = 3 s

Mean and max Courant Numbers = 0.00212352 0.094978
deltaT = 7.17391e-07
Time = 3.13913e-05

diagonal:  Solving for rho, Initial residual = 0, Final residual = 0, No Iterations 0
diagonal:  Solving for rhoUx, Initial residual = 0, Final residual = 0, No Iterations 0
diagonal:  Solving for rhoUy, Initial residual = 0, Final residual = 0, No Iterations 0
diagonal:  Solving for rhoUz, Initial residual = 0, Final residual = 0, No Iterations 0
smoothSolver:  Solving for Ux, Initial residual = 6.48434e-06, Final residual = 1.4747e-09, No Iterations 2
smoothSolver:  Solving for Uy, Initial residual = 0.00461513, Final residual = 3.83587e-07, No Iterations 2
smoothSolver:  Solving for Uz, Initial residual = 0.0113793, Final residual = 9.41902e-07, No Iterations 2
diagonal:  Solving for rhoE, Initial residual = 0, Final residual = 0, No Iterations 0
smoothSolver:  Solving for e, Initial residual = 7.26425e-06, Final residual = 2.38498e-09, No Iterations 2
smoothSolver:  Solving for epsilon, Initial residual = 5.10994e-06, Final residual = 6.42563e-10, No Iterations 2
smoothSolver:  Solving for k, Initial residual = 0.000203277, Final residual = 1.26756e-08, No Iterations 2
ExecutionTime = 3.35 s  ClockTime = 3 s

Mean and max Courant Numbers = 0.00212352 0.0953397
deltaT = 7.17391e-07
Time = 3.21087e-05

diagonal:  Solving for rho, Initial residual = 0, Final residual = 0, No Iterations 0
diagonal:  Solving for rhoUx, Initial residual = 0, Final residual = 0, No Iterations 0
diagonal:  Solving for rhoUy, Initial residual = 0, Final residual = 0, No Iterations 0
diagonal:  Solving for rhoUz, Initial residual = 0, Final residual = 0, No Iterations 0
smoothSolver:  Solving for Ux, Initial residual = 6.41734e-06, Final residual = 1.40991e-09, No Iterations 2
smoothSolver:  Solving for Uy, Initial residual = 0.00447267, Final residual = 3.69652e-07, No Iterations 2
smoothSolver:  Solving for Uz, Initial residual = 0.0111559, Final residual = 9.18008e-07, No Iterations 2
diagonal:  Solving for rhoE, Initial residual = 0, Final residual = 0, No Iterations 0
smoothSolver:  Solving for e, Initial residual = 7.0555e-06, Final residual = 2.31432e-09, No Iterations 2
smoothSolver:  Solving for epsilon, Initial residual = 5.11035e-06, Final residual = 6.31578e-10, No Iterations 2
smoothSolver:  Solving for k, Initial residual = 0.000198821, Final residual = 1.17142e-08, No Iterations 2
ExecutionTime = 3.41 s  ClockTime = 3 s

Mean and max Courant Numbers = 0.00212353 0.0956918
deltaT = 7.17391e-07
Time = 3.28261e-05

diagonal:  Solving for rho, Initial residual = 0, Final residual = 0, No Iterations 0
diagonal:  Solving for rhoUx, Initial residual = 0, Final residual = 0, No Iterations 0
diagonal:  Solving for rhoUy, Initial residual = 0, Final residual = 0, No Iterations 0
diagonal:  Solving for rhoUz, Initial residual = 0, Final residual = 0, No Iterations 0
smoothSolver:  Solving for Ux, Initial residual = 6.34575e-06, Final residual = 1.34622e-09, No Iterations 2
smoothSolver:  Solving for Uy, Initial residual = 0.00433961, Final residual = 3.56882e-07, No Iterations 2
smoothSolver:  Solving for Uz, Initial residual = 0.010939, Final residual = 8.95543e-07, No Iterations 2
diagonal:  Solving for rhoE, Initial residual = 0, Final residual = 0, No Iterations 0
smoothSolver:  Solving for e, Initial residual = 6.85283e-06, Final residual = 2.24561e-09, No Iterations 2
smoothSolver:  Solving for epsilon, Initial residual = 5.10916e-06, Final residual = 6.20826e-10, No Iterations 2
smoothSolver:  Solving for k, Initial residual = 0.000194598, Final residual = 1.08445e-08, No Iterations 2
ExecutionTime = 3.47 s  ClockTime = 3 s

Mean and max Courant Numbers = 0.00212353 0.0960341
deltaT = 7.17391e-07
Time = 3.35435e-05

diagonal:  Solving for rho, Initial residual = 0, Final residual = 0, No Iterations 0
diagonal:  Solving for rhoUx, Initial residual = 0, Final residual = 0, No Iterations 0
diagonal:  Solving for rhoUy, Initial residual = 0, Final residual = 0, No Iterations 0
diagonal:  Solving for rhoUz, Initial residual = 0, Final residual = 0, No Iterations 0
smoothSolver:  Solving for Ux, Initial residual = 6.26997e-06, Final residual = 1.28377e-09, No Iterations 2
smoothSolver:  Solving for Uy, Initial residual = 0.00421514, Final residual = 3.45732e-07, No Iterations 2
smoothSolver:  Solving for Uz, Initial residual = 0.0107281, Final residual = 8.76208e-07, No Iterations 2
diagonal:  Solving for rhoE, Initial residual = 0, Final residual = 0, No Iterations 0
smoothSolver:  Solving for e, Initial residual = 6.65562e-06, Final residual = 2.17874e-09, No Iterations 2
smoothSolver:  Solving for epsilon, Initial residual = 5.10686e-06, Final residual = 6.10369e-10, No Iterations 2
smoothSolver:  Solving for k, Initial residual = 0.000190592, Final residual = 1.00593e-08, No Iterations 2
ExecutionTime = 3.53 s  ClockTime = 3 s

Mean and max Courant Numbers = 0.00212354 0.0963666
deltaT = 7.17391e-07
Time = 3.42609e-05

diagonal:  Solving for rho, Initial residual = 0, Final residual = 0, No Iterations 0
diagonal:  Solving for rhoUx, Initial residual = 0, Final residual = 0, No Iterations 0
diagonal:  Solving for rhoUy, Initial residual = 0, Final residual = 0, No Iterations 0
diagonal:  Solving for rhoUz, Initial residual = 0, Final residual = 0, No Iterations 0
smoothSolver:  Solving for Ux, Initial residual = 6.19039e-06, Final residual = 1.22268e-09, No Iterations 2
smoothSolver:  Solving for Uy, Initial residual = 0.00409851, Final residual = 3.3541e-07, No Iterations 2
smoothSolver:  Solving for Uz, Initial residual = 0.0105229, Final residual = 8.57671e-07, No Iterations 2
diagonal:  Solving for rhoE, Initial residual = 0, Final residual = 0, No Iterations 0
smoothSolver:  Solving for e, Initial residual = 6.46338e-06, Final residual = 2.11366e-09, No Iterations 2
smoothSolver:  Solving for epsilon, Initial residual = 5.10287e-06, Final residual = 6.0027e-10, No Iterations 2
smoothSolver:  Solving for k, Initial residual = 0.000186793, Final residual = 9.3519e-09, No Iterations 2
ExecutionTime = 3.59 s  ClockTime = 3 s

Mean and max Courant Numbers = 0.00212354 0.0966891
deltaT = 7.17391e-07
Time = 3.49783e-05

diagonal:  Solving for rho, Initial residual = 0, Final residual = 0, No Iterations 0
diagonal:  Solving for rhoUx, Initial residual = 0, Final residual = 0, No Iterations 0
diagonal:  Solving for rhoUy, Initial residual = 0, Final residual = 0, No Iterations 0
diagonal:  Solving for rhoUz, Initial residual = 0, Final residual = 0, No Iterations 0
smoothSolver:  Solving for Ux, Initial residual = 6.10737e-06, Final residual = 1.16307e-09, No Iterations 2
smoothSolver:  Solving for Uy, Initial residual = 0.00398906, Final residual = 3.25834e-07, No Iterations 2
smoothSolver:  Solving for Uz, Initial residual = 0.0103229, Final residual = 8.39922e-07, No Iterations 2
diagonal:  Solving for rhoE, Initial residual = 0, Final residual = 0, No Iterations 0
smoothSolver:  Solving for e, Initial residual = 6.27611e-06, Final residual = 2.05029e-09, No Iterations 2
smoothSolver:  Solving for epsilon, Initial residual = 5.09767e-06, Final residual = 5.90584e-10, No Iterations 2
smoothSolver:  Solving for k, Initial residual = 0.000183188, Final residual = 8.71637e-09, No Iterations 2
ExecutionTime = 3.67 s  ClockTime = 3 s

Mean and max Courant Numbers = 0.00212355 0.0970015
deltaT = 7.17391e-07
Time = 3.56957e-05

diagonal:  Solving for rho, Initial residual = 0, Final residual = 0, No Iterations 0
diagonal:  Solving for rhoUx, Initial residual = 0, Final residual = 0, No Iterations 0
diagonal:  Solving for rhoUy, Initial residual = 0, Final residual = 0, No Iterations 0
diagonal:  Solving for rhoUz, Initial residual = 0, Final residual = 0, No Iterations 0
smoothSolver:  Solving for Ux, Initial residual = 6.02086e-06, Final residual = 1.10503e-09, No Iterations 2
smoothSolver:  Solving for Uy, Initial residual = 0.00388636, Final residual = 3.16947e-07, No Iterations 2
smoothSolver:  Solving for Uz, Initial residual = 0.0101297, Final residual = 8.22957e-07, No Iterations 2
diagonal:  Solving for rhoE, Initial residual = 0, Final residual = 0, No Iterations 0
smoothSolver:  Solving for e, Initial residual = 6.09382e-06, Final residual = 1.98855e-09, No Iterations 2
smoothSolver:  Solving for epsilon, Initial residual = 5.0914e-06, Final residual = 5.81354e-10, No Iterations 2
smoothSolver:  Solving for k, Initial residual = 0.000179765, Final residual = 8.15563e-09, No Iterations 2
ExecutionTime = 3.72 s  ClockTime = 3 s

Mean and max Courant Numbers = 0.00212356 0.0973037
deltaT = 7.17391e-07
Time = 3.6413e-05

diagonal:  Solving for rho, Initial residual = 0, Final residual = 0, No Iterations 0
diagonal:  Solving for rhoUx, Initial residual = 0, Final residual = 0, No Iterations 0
diagonal:  Solving for rhoUy, Initial residual = 0, Final residual = 0, No Iterations 0
diagonal:  Solving for rhoUz, Initial residual = 0, Final residual = 0, No Iterations 0
smoothSolver:  Solving for Ux, Initial residual = 5.9284e-06, Final residual = 1.04863e-09, No Iterations 2
smoothSolver:  Solving for Uy, Initial residual = 0.00378926, Final residual = 3.08659e-07, No Iterations 2
smoothSolver:  Solving for Uz, Initial residual = 0.00994208, Final residual = 8.06779e-07, No Iterations 2
diagonal:  Solving for rhoE, Initial residual = 0, Final residual = 0, No Iterations 0
smoothSolver:  Solving for e, Initial residual = 5.91652e-06, Final residual = 1.92847e-09, No Iterations 2
smoothSolver:  Solving for epsilon, Initial residual = 5.08425e-06, Final residual = 5.72626e-10, No Iterations 2
smoothSolver:  Solving for k, Initial residual = 0.00017652, Final residual = 7.67471e-09, No Iterations 2
ExecutionTime = 3.79 s  ClockTime = 3 s

Mean and max Courant Numbers = 0.00212356 0.0975958
deltaT = 7.17391e-07
Time = 3.71304e-05

diagonal:  Solving for rho, Initial residual = 0, Final residual = 0, No Iterations 0
diagonal:  Solving for rhoUx, Initial residual = 0, Final residual = 0, No Iterations 0
diagonal:  Solving for rhoUy, Initial residual = 0, Final residual = 0, No Iterations 0
diagonal:  Solving for rhoUz, Initial residual = 0, Final residual = 0, No Iterations 0
smoothSolver:  Solving for Ux, Initial residual = 5.85675e-06, Final residual = 9.98276e-10, No Iterations 2
smoothSolver:  Solving for Uy, Initial residual = 0.00369652, Final residual = 3.00847e-07, No Iterations 2
smoothSolver:  Solving for Uz, Initial residual = 0.00974341, Final residual = 7.90129e-07, No Iterations 2
diagonal:  Solving for rhoE, Initial residual = 0, Final residual = 0, No Iterations 0
smoothSolver:  Solving for e, Initial residual = 5.74404e-06, Final residual = 1.87013e-09, No Iterations 2
smoothSolver:  Solving for epsilon, Initial residual = 5.07612e-06, Final residual = 5.64437e-10, No Iterations 2
smoothSolver:  Solving for k, Initial residual = 0.000173449, Final residual = 7.24414e-09, No Iterations 2
ExecutionTime = 3.85 s  ClockTime = 4 s

Mean and max Courant Numbers = 0.00212357 0.0978775
deltaT = 7.17391e-07
Time = 3.78478e-05

diagonal:  Solving for rho, Initial residual = 0, Final residual = 0, No Iterations 0
diagonal:  Solving for rhoUx, Initial residual = 0, Final residual = 0, No Iterations 0
diagonal:  Solving for rhoUy, Initial residual = 0, Final residual = 0, No Iterations 0
diagonal:  Solving for rhoUz, Initial residual = 0, Final residual = 0, No Iterations 0
smoothSolver:  Solving for Ux, Initial residual = 5.7882e-06, Final residual = 9.51767e-10, No Iterations 2
smoothSolver:  Solving for Uy, Initial residual = 0.00360833, Final residual = 2.93572e-07, No Iterations 2
smoothSolver:  Solving for Uz, Initial residual = 0.009543, Final residual = 7.736e-07, No Iterations 2
diagonal:  Solving for rhoE, Initial residual = 0, Final residual = 0, No Iterations 0
smoothSolver:  Solving for e, Initial residual = 5.5939e-06, Final residual = 1.81338e-09, No Iterations 2
smoothSolver:  Solving for epsilon, Initial residual = 5.06709e-06, Final residual = 5.56807e-10, No Iterations 2
smoothSolver:  Solving for k, Initial residual = 0.000170589, Final residual = 6.8635e-09, No Iterations 2
ExecutionTime = 3.91 s  ClockTime = 4 s

Mean and max Courant Numbers = 0.00212357 0.098149
deltaT = 7.17391e-07
Time = 3.85652e-05

diagonal:  Solving for rho, Initial residual = 0, Final residual = 0, No Iterations 0
diagonal:  Solving for rhoUx, Initial residual = 0, Final residual = 0, No Iterations 0
diagonal:  Solving for rhoUy, Initial residual = 0, Final residual = 0, No Iterations 0
diagonal:  Solving for rhoUz, Initial residual = 0, Final residual = 0, No Iterations 0
smoothSolver:  Solving for Ux, Initial residual = 5.71071e-06, Final residual = 9.05532e-10, No Iterations 2
smoothSolver:  Solving for Uy, Initial residual = 0.00352216, Final residual = 2.85951e-07, No Iterations 2
smoothSolver:  Solving for Uz, Initial residual = 0.00933053, Final residual = 7.55339e-07, No Iterations 2
diagonal:  Solving for rhoE, Initial residual = 0, Final residual = 0, No Iterations 0
smoothSolver:  Solving for e, Initial residual = 5.46079e-06, Final residual = 1.75811e-09, No Iterations 2
smoothSolver:  Solving for epsilon, Initial residual = 5.05763e-06, Final residual = 5.49759e-10, No Iterations 2
smoothSolver:  Solving for k, Initial residual = 0.000167937, Final residual = 6.53038e-09, No Iterations 2
ExecutionTime = 3.97 s  ClockTime = 4 s

Mean and max Courant Numbers = 0.00212358 0.0984102
deltaT = 7.17391e-07
Time = 3.92826e-05

diagonal:  Solving for rho, Initial residual = 0, Final residual = 0, No Iterations 0
diagonal:  Solving for rhoUx, Initial residual = 0, Final residual = 0, No Iterations 0
diagonal:  Solving for rhoUy, Initial residual = 0, Final residual = 0, No Iterations 0
diagonal:  Solving for rhoUz, Initial residual = 0, Final residual = 0, No Iterations 0
smoothSolver:  Solving for Ux, Initial residual = 5.63694e-06, Final residual = 8.6222e-10, No Iterations 2
smoothSolver:  Solving for Uy, Initial residual = 0.00344112, Final residual = 2.79429e-07, No Iterations 2
smoothSolver:  Solving for Uz, Initial residual = 0.00911912, Final residual = 7.38922e-07, No Iterations 2
diagonal:  Solving for rhoE, Initial residual = 0, Final residual = 0, No Iterations 0
smoothSolver:  Solving for e, Initial residual = 5.33159e-06, Final residual = 1.70421e-09, No Iterations 2
smoothSolver:  Solving for epsilon, Initial residual = 5.0476e-06, Final residual = 5.43327e-10, No Iterations 2
smoothSolver:  Solving for k, Initial residual = 0.000165715, Final residual = 6.25426e-09, No Iterations 2
ExecutionTime = 4.03 s  ClockTime = 4 s

Mean and max Courant Numbers = 0.00212358 0.098661
deltaT = 7.17391e-07
Time = 4e-05

diagonal:  Solving for rho, Initial residual = 0, Final residual = 0, No Iterations 0
diagonal:  Solving for rhoUx, Initial residual = 0, Final residual = 0, No Iterations 0
diagonal:  Solving for rhoUy, Initial residual = 0, Final residual = 0, No Iterations 0
diagonal:  Solving for rhoUz, Initial residual = 0, Final residual = 0, No Iterations 0
smoothSolver:  Solving for Ux, Initial residual = 5.57089e-06, Final residual = 8.2174e-10, No Iterations 2
smoothSolver:  Solving for Uy, Initial residual = 0.00336538, Final residual = 2.74088e-07, No Iterations 2
smoothSolver:  Solving for Uz, Initial residual = 0.0089131, Final residual = 7.24705e-07, No Iterations 2
diagonal:  Solving for rhoE, Initial residual = 0, Final residual = 0, No Iterations 0
smoothSolver:  Solving for e, Initial residual = 5.20621e-06, Final residual = 1.6516e-09, No Iterations 2
smoothSolver:  Solving for epsilon, Initial residual = 5.03722e-06, Final residual = 5.37467e-10, No Iterations 2
smoothSolver:  Solving for k, Initial residual = 0.000163662, Final residual = 6.21118e-09, No Iterations 2
ExecutionTime = 4.15 s  ClockTime = 4 s

Mean and max Courant Numbers = 0.00212359 0.0989015
deltaT = 7.14286e-07
Time = 4.07143e-05

diagonal:  Solving for rho, Initial residual = 0, Final residual = 0, No Iterations 0
diagonal:  Solving for rhoUx, Initial residual = 0, Final residual = 0, No Iterations 0
diagonal:  Solving for rhoUy, Initial residual = 0, Final residual = 0, No Iterations 0
diagonal:  Solving for rhoUz, Initial residual = 0, Final residual = 0, No Iterations 0
smoothSolver:  Solving for Ux, Initial residual = 5.48098e-06, Final residual = 7.73739e-10, No Iterations 2
smoothSolver:  Solving for Uy, Initial residual = 0.0032842, Final residual = 2.6619e-07, No Iterations 2
smoothSolver:  Solving for Uz, Initial residual = 0.00868508, Final residual = 7.03201e-07, No Iterations 2
diagonal:  Solving for rhoE, Initial residual = 0, Final residual = 0, No Iterations 0
smoothSolver:  Solving for e, Initial residual = 5.06239e-06, Final residual = 1.57988e-09, No Iterations 2
smoothSolver:  Solving for epsilon, Initial residual = 5.00486e-06, Final residual = 5.25345e-10, No Iterations 2
smoothSolver:  Solving for k, Initial residual = 0.000161124, Final residual = 6.13607e-09, No Iterations 2
ExecutionTime = 4.22 s  ClockTime = 4 s

Mean and max Courant Numbers = 0.0021144 0.0987016
deltaT = 7.14286e-07
Time = 4.14286e-05

diagonal:  Solving for rho, Initial residual = 0, Final residual = 0, No Iterations 0
diagonal:  Solving for rhoUx, Initial residual = 0, Final residual = 0, No Iterations 0
diagonal:  Solving for rhoUy, Initial residual = 0, Final residual = 0, No Iterations 0
diagonal:  Solving for rhoUz, Initial residual = 0, Final residual = 0, No Iterations 0
smoothSolver:  Solving for Ux, Initial residual = 5.41157e-06, Final residual = 7.37354e-10, No Iterations 2
smoothSolver:  Solving for Uy, Initial residual = 0.00322755, Final residual = 2.6203e-07, No Iterations 2
smoothSolver:  Solving for Uz, Initial residual = 0.00851954, Final residual = 6.90838e-07, No Iterations 2
diagonal:  Solving for rhoE, Initial residual = 0, Final residual = 0, No Iterations 0
smoothSolver:  Solving for e, Initial residual = 4.95166e-06, Final residual = 1.53094e-09, No Iterations 2
smoothSolver:  Solving for epsilon, Initial residual = 4.99411e-06, Final residual = 5.20672e-10, No Iterations 2
smoothSolver:  Solving for k, Initial residual = 0.000159528, Final residual = 6.1366e-09, No Iterations 2
ExecutionTime = 4.3 s  ClockTime = 4 s

Mean and max Courant Numbers = 0.00211441 0.0989198
deltaT = 7.14286e-07
Time = 4.21429e-05

diagonal:  Solving for rho, Initial residual = 0, Final residual = 0, No Iterations 0
diagonal:  Solving for rhoUx, Initial residual = 0, Final residual = 0, No Iterations 0
diagonal:  Solving for rhoUy, Initial residual = 0, Final residual = 0, No Iterations 0
diagonal:  Solving for rhoUz, Initial residual = 0, Final residual = 0, No Iterations 0
smoothSolver:  Solving for Ux, Initial residual = 5.35561e-06, Final residual = 7.02054e-10, No Iterations 2
smoothSolver:  Solving for Uy, Initial residual = 0.0031733, Final residual = 2.58109e-07, No Iterations 2
smoothSolver:  Solving for Uz, Initial residual = 0.00835643, Final residual = 6.7898e-07, No Iterations 2
diagonal:  Solving for rhoE, Initial residual = 0, Final residual = 0, No Iterations 0
smoothSolver:  Solving for e, Initial residual = 4.85681e-06, Final residual = 1.4846e-09, No Iterations 2
smoothSolver:  Solving for epsilon, Initial residual = 4.98334e-06, Final residual = 5.16497e-10, No Iterations 2
smoothSolver:  Solving for k, Initial residual = 0.00015798, Final residual = 6.13285e-09, No Iterations 2
ExecutionTime = 4.39 s  ClockTime = 4 s

Mean and max Courant Numbers = 0.00211441 0.0991289
deltaT = 7.14286e-07
Time = 4.28571e-05

diagonal:  Solving for rho, Initial residual = 0, Final residual = 0, No Iterations 0
diagonal:  Solving for rhoUx, Initial residual = 0, Final residual = 0, No Iterations 0
diagonal:  Solving for rhoUy, Initial residual = 0, Final residual = 0, No Iterations 0
diagonal:  Solving for rhoUz, Initial residual = 0, Final residual = 0, No Iterations 0
smoothSolver:  Solving for Ux, Initial residual = 5.29857e-06, Final residual = 6.6835e-10, No Iterations 2
smoothSolver:  Solving for Uy, Initial residual = 0.00312157, Final residual = 2.56008e-07, No Iterations 2
smoothSolver:  Solving for Uz, Initial residual = 0.00819569, Final residual = 6.71056e-07, No Iterations 2
diagonal:  Solving for rhoE, Initial residual = 0, Final residual = 0, No Iterations 0
smoothSolver:  Solving for e, Initial residual = 4.76426e-06, Final residual = 1.44389e-09, No Iterations 2
smoothSolver:  Solving for epsilon, Initial residual = 4.9727e-06, Final residual = 5.12796e-10, No Iterations 2
smoothSolver:  Solving for k, Initial residual = 0.000156478, Final residual = 6.1244e-09, No Iterations 2
ExecutionTime = 4.46 s  ClockTime = 4 s

Mean and max Courant Numbers = 0.00211442 0.0993284
deltaT = 7.14286e-07
Time = 4.35714e-05

diagonal:  Solving for rho, Initial residual = 0, Final residual = 0, No Iterations 0
diagonal:  Solving for rhoUx, Initial residual = 0, Final residual = 0, No Iterations 0
diagonal:  Solving for rhoUy, Initial residual = 0, Final residual = 0, No Iterations 0
diagonal:  Solving for rhoUz, Initial residual = 0, Final residual = 0, No Iterations 0
smoothSolver:  Solving for Ux, Initial residual = 5.239e-06, Final residual = 6.36207e-10, No Iterations 2
smoothSolver:  Solving for Uy, Initial residual = 0.00307215, Final residual = 2.54248e-07, No Iterations 2
smoothSolver:  Solving for Uz, Initial residual = 0.00803739, Final residual = 6.64295e-07, No Iterations 2
diagonal:  Solving for rhoE, Initial residual = 0, Final residual = 0, No Iterations 0
smoothSolver:  Solving for e, Initial residual = 4.67381e-06, Final residual = 1.40599e-09, No Iterations 2
smoothSolver:  Solving for epsilon, Initial residual = 4.9621e-06, Final residual = 5.09548e-10, No Iterations 2
smoothSolver:  Solving for k, Initial residual = 0.000155121, Final residual = 6.11242e-09, No Iterations 2
ExecutionTime = 4.52 s  ClockTime = 4 s

Mean and max Courant Numbers = 0.00211442 0.0995179
deltaT = 7.14286e-07
Time = 4.42857e-05

diagonal:  Solving for rho, Initial residual = 0, Final residual = 0, No Iterations 0
diagonal:  Solving for rhoUx, Initial residual = 0, Final residual = 0, No Iterations 0
diagonal:  Solving for rhoUy, Initial residual = 0, Final residual = 0, No Iterations 0
diagonal:  Solving for rhoUz, Initial residual = 0, Final residual = 0, No Iterations 0
smoothSolver:  Solving for Ux, Initial residual = 5.17711e-06, Final residual = 6.06015e-10, No Iterations 2
smoothSolver:  Solving for Uy, Initial residual = 0.00303906, Final residual = 2.52698e-07, No Iterations 2
smoothSolver:  Solving for Uz, Initial residual = 0.00793064, Final residual = 6.57612e-07, No Iterations 2
diagonal:  Solving for rhoE, Initial residual = 0, Final residual = 0, No Iterations 0
smoothSolver:  Solving for e, Initial residual = 4.58546e-06, Final residual = 1.36812e-09, No Iterations 2
smoothSolver:  Solving for epsilon, Initial residual = 4.95185e-06, Final residual = 5.06735e-10, No Iterations 2
smoothSolver:  Solving for k, Initial residual = 0.000153786, Final residual = 6.10307e-09, No Iterations 2
ExecutionTime = 4.59 s  ClockTime = 4 s

Mean and max Courant Numbers = 0.00211443 0.0996976
deltaT = 7.14286e-07
Time = 4.5e-05

diagonal:  Solving for rho, Initial residual = 0, Final residual = 0, No Iterations 0
diagonal:  Solving for rhoUx, Initial residual = 0, Final residual = 0, No Iterations 0
diagonal:  Solving for rhoUy, Initial residual = 0, Final residual = 0, No Iterations 0
diagonal:  Solving for rhoUz, Initial residual = 0, Final residual = 0, No Iterations 0
smoothSolver:  Solving for Ux, Initial residual = 5.11304e-06, Final residual = 5.83584e-10, No Iterations 2
smoothSolver:  Solving for Uy, Initial residual = 0.00301829, Final residual = 2.51321e-07, No Iterations 2
smoothSolver:  Solving for Uz, Initial residual = 0.00782259, Final residual = 6.50189e-07, No Iterations 2
diagonal:  Solving for rhoE, Initial residual = 0, Final residual = 0, No Iterations 0
smoothSolver:  Solving for e, Initial residual = 4.49918e-06, Final residual = 1.33035e-09, No Iterations 2
smoothSolver:  Solving for epsilon, Initial residual = 4.94165e-06, Final residual = 5.04356e-10, No Iterations 2
smoothSolver:  Solving for k, Initial residual = 0.000152482, Final residual = 6.08814e-09, No Iterations 2
ExecutionTime = 4.65 s  ClockTime = 4 s

Mean and max Courant Numbers = 0.00211443 0.0998674
deltaT = 7.14286e-07
Time = 4.57143e-05

diagonal:  Solving for rho, Initial residual = 0, Final residual = 0, No Iterations 0
diagonal:  Solving for rhoUx, Initial residual = 0, Final residual = 0, No Iterations 0
diagonal:  Solving for rhoUy, Initial residual = 0, Final residual = 0, No Iterations 0
diagonal:  Solving for rhoUz, Initial residual = 0, Final residual = 0, No Iterations 0
smoothSolver:  Solving for Ux, Initial residual = 5.0471e-06, Final residual = 5.62521e-10, No Iterations 2
smoothSolver:  Solving for Uy, Initial residual = 0.00300462, Final residual = 2.50174e-07, No Iterations 2
smoothSolver:  Solving for Uz, Initial residual = 0.00773316, Final residual = 6.42934e-07, No Iterations 2
diagonal:  Solving for rhoE, Initial residual = 0, Final residual = 0, No Iterations 0
smoothSolver:  Solving for e, Initial residual = 4.41497e-06, Final residual = 1.29275e-09, No Iterations 2
smoothSolver:  Solving for epsilon, Initial residual = 4.93182e-06, Final residual = 5.02382e-10, No Iterations 2
smoothSolver:  Solving for k, Initial residual = 0.000151214, Final residual = 6.06731e-09, No Iterations 2
ExecutionTime = 4.71 s  ClockTime = 4 s

Mean and max Courant Numbers = 0.00211444 0.100028
deltaT = 6.80272e-07
Time = 4.63946e-05

diagonal:  Solving for rho, Initial residual = 0, Final residual = 0, No Iterations 0
diagonal:  Solving for rhoUx, Initial residual = 0, Final residual = 0, No Iterations 0
diagonal:  Solving for rhoUy, Initial residual = 0, Final residual = 0, No Iterations 0
diagonal:  Solving for rhoUz, Initial residual = 0, Final residual = 0, No Iterations 0
smoothSolver:  Solving for Ux, Initial residual = 4.74537e-06, Final residual = 4.69626e-10, No Iterations 2
smoothSolver:  Solving for Uy, Initial residual = 0.00284634, Final residual = 2.15605e-07, No Iterations 2
smoothSolver:  Solving for Uz, Initial residual = 0.00726958, Final residual = 5.50005e-07, No Iterations 2
diagonal:  Solving for rhoE, Initial residual = 0, Final residual = 0, No Iterations 0
smoothSolver:  Solving for e, Initial residual = 4.12464e-06, Final residual = 1.08764e-09, No Iterations 2
smoothSolver:  Solving for epsilon, Initial residual = 4.68853e-06, Final residual = 4.33035e-10, No Iterations 2
smoothSolver:  Solving for k, Initial residual = 0.000142819, Final residual = 5.22596e-09, No Iterations 2
ExecutionTime = 4.77 s  ClockTime = 4 s

Mean and max Courant Numbers = 0.00201376 0.0954014
deltaT = 6.80272e-07
Time = 4.70748e-05

diagonal:  Solving for rho, Initial residual = 0, Final residual = 0, No Iterations 0
diagonal:  Solving for rhoUx, Initial residual = 0, Final residual = 0, No Iterations 0
diagonal:  Solving for rhoUy, Initial residual = 0, Final residual = 0, No Iterations 0
diagonal:  Solving for rhoUz, Initial residual = 0, Final residual = 0, No Iterations 0
smoothSolver:  Solving for Ux, Initial residual = 4.69176e-06, Final residual = 4.54281e-10, No Iterations 2
smoothSolver:  Solving for Uy, Initial residual = 0.00283223, Final residual = 2.14878e-07, No Iterations 2
smoothSolver:  Solving for Uz, Initial residual = 0.00717473, Final residual = 5.43839e-07, No Iterations 2
diagonal:  Solving for rhoE, Initial residual = 0, Final residual = 0, No Iterations 0
smoothSolver:  Solving for e, Initial residual = 4.05183e-06, Final residual = 1.05698e-09, No Iterations 2
smoothSolver:  Solving for epsilon, Initial residual = 4.68007e-06, Final residual = 4.31983e-10, No Iterations 2
smoothSolver:  Solving for k, Initial residual = 0.000141729, Final residual = 5.19951e-09, No Iterations 2
ExecutionTime = 4.86 s  ClockTime = 5 s

Mean and max Courant Numbers = 0.00201376 0.0955297
deltaT = 6.80272e-07
Time = 4.77551e-05

diagonal:  Solving for rho, Initial residual = 0, Final residual = 0, No Iterations 0
diagonal:  Solving for rhoUx, Initial residual = 0, Final residual = 0, No Iterations 0
diagonal:  Solving for rhoUy, Initial residual = 0, Final residual = 0, No Iterations 0
diagonal:  Solving for rhoUz, Initial residual = 0, Final residual = 0, No Iterations 0
smoothSolver:  Solving for Ux, Initial residual = 4.64883e-06, Final residual = 4.39851e-10, No Iterations 2
smoothSolver:  Solving for Uy, Initial residual = 0.00281764, Final residual = 2.1426e-07, No Iterations 2
[...]
smoothSolver:  Solving for Uz, Initial residual = 0.00120138, Final residual = 3.67102e-09, No Iterations 2
diagonal:  Solving for rhoE, Initial residual = 0, Final residual = 0, No Iterations 0
smoothSolver:  Solving for e, Initial residual = 7.82806e-07, Final residual = 5.23222e-12, No Iterations 2
smoothSolver:  Solving for epsilon, Initial residual = 4.73643e-06, Final residual = 7.02795e-11, No Iterations 2
smoothSolver:  Solving for k, Initial residual = 5.38128e-05, Final residual = 3.71869e-10, No Iterations 2
ExecutionTime = 19.61 s  ClockTime = 20 s

Mean and max Courant Numbers = 0.00161012 0.0984599
deltaT = 5.43611e-07
Time = 0.000187497

diagonal:  Solving for rho, Initial residual = 0, Final residual = 0, No Iterations 0
diagonal:  Solving for rhoUx, Initial residual = 0, Final residual = 0, No Iterations 0
diagonal:  Solving for rhoUy, Initial residual = 0, Final residual = 0, No Iterations 0
diagonal:  Solving for rhoUz, Initial residual = 0, Final residual = 0, No Iterations 0
smoothSolver:  Solving for Ux, Initial residual = 8.95712e-07, Final residual = 1.04813e-12, No Iterations 2
smoothSolver:  Solving for Uy, Initial residual = 0.000891669, Final residual = 2.76096e-09, No Iterations 2
smoothSolver:  Solving for Uz, Initial residual = 0.00118822, Final residual = 3.7456e-09, No Iterations 2
diagonal:  Solving for rhoE, Initial residual = 0, Final residual = 0, No Iterations 0
smoothSolver:  Solving for e, Initial residual = 7.65971e-07, Final residual = 5.38872e-12, No Iterations 2
smoothSolver:  Solving for epsilon, Initial residual = 4.73836e-06, Final residual = 7.19394e-11, No Iterations 2
smoothSolver:  Solving for k, Initial residual = 5.36805e-05, Final residual = 3.76555e-10, No Iterations 2
ExecutionTime = 19.66 s  ClockTime = 20 s

Mean and max Courant Numbers = 0.00161011 0.0990275
deltaT = 5.43611e-07
Time = 0.000188041

diagonal:  Solving for rho, Initial residual = 0, Final residual = 0, No Iterations 0
diagonal:  Solving for rhoUx, Initial residual = 0, Final residual = 0, No Iterations 0
diagonal:  Solving for rhoUy, Initial residual = 0, Final residual = 0, No Iterations 0
diagonal:  Solving for rhoUz, Initial residual = 0, Final residual = 0, No Iterations 0
smoothSolver:  Solving for Ux, Initial residual = 8.9645e-07, Final residual = 1.02286e-12, No Iterations 2
smoothSolver:  Solving for Uy, Initial residual = 0.000907706, Final residual = 2.78897e-09, No Iterations 2
smoothSolver:  Solving for Uz, Initial residual = 0.00122232, Final residual = 3.83123e-09, No Iterations 2
diagonal:  Solving for rhoE, Initial residual = 0, Final residual = 0, No Iterations 0
smoothSolver:  Solving for e, Initial residual = 7.68149e-07, Final residual = 5.56539e-12, No Iterations 2
smoothSolver:  Solving for epsilon, Initial residual = 4.72016e-06, Final residual = 7.34849e-11, No Iterations 2
smoothSolver:  Solving for k, Initial residual = 5.35681e-05, Final residual = 3.90782e-10, No Iterations 2
ExecutionTime = 19.72 s  ClockTime = 20 s

Mean and max Courant Numbers = 0.00161015 0.0994711
deltaT = 5.43611e-07
Time = 0.000188584

diagonal:  Solving for rho, Initial residual = 0, Final residual = 0, No Iterations 0
diagonal:  Solving for rhoUx, Initial residual = 0, Final residual = 0, No Iterations 0
diagonal:  Solving for rhoUy, Initial residual = 0, Final residual = 0, No Iterations 0
diagonal:  Solving for rhoUz, Initial residual = 0, Final residual = 0, No Iterations 0
smoothSolver:  Solving for Ux, Initial residual = 8.97038e-07, Final residual = 9.92922e-13, No Iterations 2
smoothSolver:  Solving for Uy, Initial residual = 0.000871162, Final residual = 2.82869e-09, No Iterations 2
smoothSolver:  Solving for Uz, Initial residual = 0.00118789, Final residual = 3.93973e-09, No Iterations 2
diagonal:  Solving for rhoE, Initial residual = 0, Final residual = 0, No Iterations 0
smoothSolver:  Solving for e, Initial residual = 7.27107e-07, Final residual = 5.75551e-12, No Iterations 2
smoothSolver:  Solving for epsilon, Initial residual = 4.79386e-06, Final residual = 7.52764e-11, No Iterations 2
smoothSolver:  Solving for k, Initial residual = 5.35865e-05, Final residual = 4.08774e-10, No Iterations 2
ExecutionTime = 19.78 s  ClockTime = 20 s

Mean and max Courant Numbers = 0.00161011 0.0997855
deltaT = 5.43611e-07
Time = 0.000189128

diagonal:  Solving for rho, Initial residual = 0, Final residual = 0, No Iterations 0
diagonal:  Solving for rhoUx, Initial residual = 0, Final residual = 0, No Iterations 0
diagonal:  Solving for rhoUy, Initial residual = 0, Final residual = 0, No Iterations 0
diagonal:  Solving for rhoUz, Initial residual = 0, Final residual = 0, No Iterations 0
smoothSolver:  Solving for Ux, Initial residual = 8.99151e-07, Final residual = 9.81773e-13, No Iterations 2
smoothSolver:  Solving for Uy, Initial residual = 0.000919599, Final residual = 2.87679e-09, No Iterations 2
smoothSolver:  Solving for Uz, Initial residual = 0.00126511, Final residual = 4.05308e-09, No Iterations 2
diagonal:  Solving for rhoE, Initial residual = 0, Final residual = 0, No Iterations 0
smoothSolver:  Solving for e, Initial residual = 7.26036e-07, Final residual = 5.92762e-12, No Iterations 2
smoothSolver:  Solving for epsilon, Initial residual = 4.78873e-06, Final residual = 7.74239e-11, No Iterations 2
smoothSolver:  Solving for k, Initial residual = 5.35806e-05, Final residual = 4.27941e-10, No Iterations 2
ExecutionTime = 19.84 s  ClockTime = 20 s

Mean and max Courant Numbers = 0.00161028 0.254735
deltaT = 2.13181e-07
Time = 0.000189341

diagonal:  Solving for rho, Initial residual = 0, Final residual = 0, No Iterations 0
diagonal:  Solving for rhoUx, Initial residual = 0, Final residual = 0, No Iterations 0
diagonal:  Solving for rhoUy, Initial residual = 0, Final residual = 0, No Iterations 0
diagonal:  Solving for rhoUz, Initial residual = 0, Final residual = 0, No Iterations 0
smoothSolver:  Solving for Ux, Initial residual = 3.54885e-07, Final residual = 6.08161e-14, No Iterations 2
smoothSolver:  Solving for Uy, Initial residual = 0.000339879, Final residual = 1.73807e-10, No Iterations 2
smoothSolver:  Solving for Uz, Initial residual = 0.000470866, Final residual = 2.46585e-10, No Iterations 2
diagonal:  Solving for rhoE, Initial residual = 0, Final residual = 0, No Iterations 0
smoothSolver:  Solving for e, Initial residual = 2.52865e-07, Final residual = 3.48551e-13, No Iterations 2
smoothSolver:  Solving for epsilon, Initial residual = 1.78487e-06, Final residual = 4.74105e-12, No Iterations 2
smoothSolver:  Solving for k, Initial residual = 2.08092e-05, Final residual = 2.64189e-11, No Iterations 2
ExecutionTime = 19.91 s  ClockTime = 20 s

Mean and max Courant Numbers = 0.000631421 0.039214
deltaT = 2.53786e-07
Time = 0.000189595

diagonal:  Solving for rho, Initial residual = 0, Final residual = 0, No Iterations 0
diagonal:  Solving for rhoUx, Initial residual = 0, Final residual = 0, No Iterations 0
diagonal:  Solving for rhoUy, Initial residual = 0, Final residual = 0, No Iterations 0
diagonal:  Solving for rhoUz, Initial residual = 0, Final residual = 0, No Iterations 0
smoothSolver:  Solving for Ux, Initial residual = 4.21754e-07, Final residual = 1.02062e-13, No Iterations 2
smoothSolver:  Solving for Uy, Initial residual = 0.000431149, Final residual = 2.86358e-10, No Iterations 2
smoothSolver:  Solving for Uz, Initial residual = 0.000606846, Final residual = 4.11184e-10, No Iterations 2
diagonal:  Solving for rhoE, Initial residual = 0, Final residual = 0, No Iterations 0
smoothSolver:  Solving for e, Initial residual = 3.15201e-07, Final residual = 5.97558e-13, No Iterations 2
smoothSolver:  Solving for epsilon, Initial residual = 2.14539e-06, Final residual = 8.13813e-12, No Iterations 2
smoothSolver:  Solving for k, Initial residual = 2.47556e-05, Final residual = 4.55775e-11, No Iterations 2
ExecutionTime = 19.97 s  ClockTime = 20 s

Mean and max Courant Numbers = 0.00075171 0.0477285
deltaT = 2.97293e-07
Time = 0.000189892

diagonal:  Solving for rho, Initial residual = 0, Final residual = 0, No Iterations 0
diagonal:  Solving for rhoUx, Initial residual = 0, Final residual = 0, No Iterations 0
diagonal:  Solving for rhoUy, Initial residual = 0, Final residual = 0, No Iterations 0
diagonal:  Solving for rhoUz, Initial residual = 0, Final residual = 0, No Iterations 0
smoothSolver:  Solving for Ux, Initial residual = 4.94705e-07, Final residual = 1.64674e-13, No Iterations 2
smoothSolver:  Solving for Uy, Initial residual = 0.00044397, Final residual = 4.72313e-10, No Iterations 2
smoothSolver:  Solving for Uz, Initial residual = 0.000628122, Final residual = 6.76511e-10, No Iterations 2
diagonal:  Solving for rhoE, Initial residual = 0, Final residual = 0, No Iterations 0
smoothSolver:  Solving for e, Initial residual = 3.73462e-07, Final residual = 9.73006e-13, No Iterations 2
smoothSolver:  Solving for epsilon, Initial residual = 2.54687e-06, Final residual = 1.34873e-11, No Iterations 2
smoothSolver:  Solving for k, Initial residual = 2.92816e-05, Final residual = 7.52293e-11, No Iterations 2
ExecutionTime = 20.03 s  ClockTime = 20 s

Mean and max Courant Numbers = 0.000880643 0.330947
deltaT = 8.94509e-08
Time = 0.000189981

diagonal:  Solving for rho, Initial residual = 0, Final residual = 0, No Iterations 0
diagonal:  Solving for rhoUx, Initial residual = 0, Final residual = 0, No Iterations 0
diagonal:  Solving for rhoUy, Initial residual = 0, Final residual = 0, No Iterations 0
diagonal:  Solving for rhoUz, Initial residual = 0, Final residual = 0, No Iterations 0
smoothSolver:  Solving for Ux, Initial residual = 1.48979e-07, Final residual = 4.4963e-15, No Iterations 2
smoothSolver:  Solving for Uy, Initial residual = 0.000136776, Final residual = 1.28801e-11, No Iterations 2
smoothSolver:  Solving for Uz, Initial residual = 0.000193922, Final residual = 1.84766e-11, No Iterations 2
diagonal:  Solving for rhoE, Initial residual = 0, Final residual = 0, No Iterations 0
smoothSolver:  Solving for e, Initial residual = 1.60546e-07, Final residual = 2.62677e-14, No Iterations 2
smoothSolver:  Solving for epsilon, Initial residual = 7.67402e-07, Final residual = 3.74042e-13, No Iterations 2
smoothSolver:  Solving for k, Initial residual = 8.72334e-06, Final residual = 2.07451e-12, No Iterations 2
ExecutionTime = 20.1 s  ClockTime = 20 s

Mean and max Courant Numbers = 0.000264949 0.0164499
deltaT = 1.0658e-07
Time = 0.000190088

diagonal:  Solving for rho, Initial residual = 0, Final residual = 0, No Iterations 0
diagonal:  Solving for rhoUx, Initial residual = 0, Final residual = 0, No Iterations 0
diagonal:  Solving for rhoUy, Initial residual = 0, Final residual = 0, No Iterations 0
diagonal:  Solving for rhoUz, Initial residual = 0, Final residual = 0, No Iterations 0
smoothSolver:  Solving for Ux, Initial residual = 1.77492e-07, Final residual = 7.63956e-15, No Iterations 2
smoothSolver:  Solving for Uy, Initial residual = 0.000174729, Final residual = 2.21378e-11, No Iterations 2
smoothSolver:  Solving for Uz, Initial residual = 0.000237757, Final residual = 3.0493e-11, No Iterations 2
diagonal:  Solving for rhoE, Initial residual = 0, Final residual = 0, No Iterations 0
smoothSolver:  Solving for e, Initial residual = 2.63226e-07, Final residual = 4.42069e-14, No Iterations 2
smoothSolver:  Solving for epsilon, Initial residual = 9.15426e-07, Final residual = 6.42651e-13, No Iterations 2
smoothSolver:  Solving for k, Initial residual = 1.03909e-05, Final residual = 3.54384e-12, No Iterations 2
ExecutionTime = 20.17 s  ClockTime = 20 s

Mean and max Courant Numbers = 0.00031569 0.0308417
deltaT = 1.27076e-07
Time = 0.000190215

diagonal:  Solving for rho, Initial residual = 0, Final residual = 0, No Iterations 0
diagonal:  Solving for rhoUx, Initial residual = 0, Final residual = 0, No Iterations 0
diagonal:  Solving for rhoUy, Initial residual = 0, Final residual = 0, No Iterations 0
diagonal:  Solving for rhoUz, Initial residual = 0, Final residual = 0, No Iterations 0
smoothSolver:  Solving for Ux, Initial residual = 2.1212e-07, Final residual = 1.30517e-14, No Iterations 2
smoothSolver:  Solving for Uy, Initial residual = 0.000195979, Final residual = 3.70831e-11, No Iterations 2
smoothSolver:  Solving for Uz, Initial residual = 0.000255312, Final residual = 4.78209e-11, No Iterations 2
diagonal:  Solving for rhoE, Initial residual = 0, Final residual = 0, No Iterations 0
smoothSolver:  Solving for e, Initial residual = 3.3237e-07, Final residual = 7.48904e-14, No Iterations 2
smoothSolver:  Solving for epsilon, Initial residual = 1.09068e-06, Final residual = 1.11352e-12, No Iterations 2
smoothSolver:  Solving for k, Initial residual = 1.24152e-05, Final residual = 6.08381e-12, No Iterations 2
ExecutionTime = 20.23 s  ClockTime = 20 s

Mean and max Courant Numbers = 0.000376399 0.0429519
deltaT = 1.50536e-07
Time = 0.000190366

diagonal:  Solving for rho, Initial residual = 0, Final residual = 0, No Iterations 0
diagonal:  Solving for rhoUx, Initial residual = 0, Final residual = 0, No Iterations 0
diagonal:  Solving for rhoUy, Initial residual = 0, Final residual = 0, No Iterations 0
diagonal:  Solving for rhoUz, Initial residual = 0, Final residual = 0, No Iterations 0
smoothSolver:  Solving for Ux, Initial residual = 2.50625e-07, Final residual = 2.18131e-14, No Iterations 2
smoothSolver:  Solving for Uy, Initial residual = 0.000251602, Final residual = 6.20087e-11, No Iterations 2
smoothSolver:  Solving for Uz, Initial residual = 0.000329675, Final residual = 8.18361e-11, No Iterations 2
diagonal:  Solving for rhoE, Initial residual = 0, Final residual = 0, No Iterations 0
smoothSolver:  Solving for e, Initial residual = 2.63558e-07, Final residual = 1.24529e-13, No Iterations 2
smoothSolver:  Solving for epsilon, Initial residual = 1.30372e-06, Final residual = 1.91013e-12, No Iterations 2
smoothSolver:  Solving for k, Initial residual = 1.47132e-05, Final residual = 1.02968e-11, No Iterations 2
ExecutionTime = 20.29 s  ClockTime = 20 s

Mean and max Courant Numbers = 0.000445908 0.170907
deltaT = 8.75846e-08
Time = 0.000190453

diagonal:  Solving for rho, Initial residual = 0, Final residual = 0, No Iterations 0
diagonal:  Solving for rhoUx, Initial residual = 0, Final residual = 0, No Iterations 0
diagonal:  Solving for rhoUy, Initial residual = 0, Final residual = 0, No Iterations 0
diagonal:  Solving for rhoUz, Initial residual = 0, Final residual = 0, No Iterations 0
smoothSolver:  Solving for Ux, Initial residual = 1.45324e-07, Final residual = 4.19628e-15, No Iterations 2
smoothSolver:  Solving for Uy, Initial residual = 5.26997e-05, Final residual = 4.7553e-12, No Iterations 2
smoothSolver:  Solving for Uz, Initial residual = 0.000192894, Final residual = 1.7569e-11, No Iterations 2
diagonal:  Solving for rhoE, Initial residual = 0, Final residual = 0, No Iterations 0
smoothSolver:  Solving for e, Initial residual = 1.95939e-07, Final residual = 2.15236e-14, No Iterations 2
smoothSolver:  Solving for epsilon, Initial residual = 8.65317e-07, Final residual = 3.86107e-13, No Iterations 2
smoothSolver:  Solving for k, Initial residual = 8.829e-06, Final residual = 2.07418e-12, No Iterations 2
ExecutionTime = 20.35 s  ClockTime = 20 s

Mean and max Courant Numbers = 0.000259429 0.0261133
deltaT = 1.04909e-07
Time = 0.000190558

diagonal:  Solving for rho, Initial residual = 0, Final residual = 0, No Iterations 0
diagonal:  Solving for rhoUx, Initial residual = 0, Final residual = 0, No Iterations 0
diagonal:  Solving for rhoUy, Initial residual = 0, Final residual = 0, No Iterations 0
diagonal:  Solving for rhoUz, Initial residual = 0, Final residual = 0, No Iterations 0
smoothSolver:  Solving for Ux, Initial residual = 1.75532e-07, Final residual = 7.41033e-15, No Iterations 2
smoothSolver:  Solving for Uy, Initial residual = 7.15604e-05, Final residual = 8.83054e-12, No Iterations 2
smoothSolver:  Solving for Uz, Initial residual = 0.000231256, Final residual = 2.76697e-11, No Iterations 2
diagonal:  Solving for rhoE, Initial residual = 0, Final residual = 0, No Iterations 0
smoothSolver:  Solving for e, Initial residual = 6.79462e-07, Final residual = 3.58942e-14, No Iterations 2
smoothSolver:  Solving for epsilon, Initial residual = 1.02722e-06, Final residual = 6.89033e-13, No Iterations 2
smoothSolver:  Solving for k, Initial residual = 1.05317e-05, Final residual = 3.61311e-12, No Iterations 2
ExecutionTime = 20.46 s  ClockTime = 20 s

Mean and max Courant Numbers = 0.000310741 0.031138
deltaT = 1.24234e-07
Time = 0.000190682

diagonal:  Solving for rho, Initial residual = 0, Final residual = 0, No Iterations 0
diagonal:  Solving for rhoUx, Initial residual = 0, Final residual = 0, No Iterations 0
diagonal:  Solving for rhoUy, Initial residual = 0, Final residual = 0, No Iterations 0
diagonal:  Solving for rhoUz, Initial residual = 0, Final residual = 0, No Iterations 0
smoothSolver:  Solving for Ux, Initial residual = 2.07055e-07, Final residual = 1.24537e-14, No Iterations 2
smoothSolver:  Solving for Uy, Initial residual = 0.000144279, Final residual = 1.50045e-11, No Iterations 2
smoothSolver:  Solving for Uz, Initial residual = 0.000408726, Final residual = 4.05929e-11, No Iterations 2
diagonal:  Solving for rhoE, Initial residual = 0, Final residual = 0, No Iterations 0
smoothSolver:  Solving for e, Initial residual = 2.73054e-07, Final residual = 5.77386e-14, No Iterations 2
smoothSolver:  Solving for epsilon, Initial residual = 1.27377e-06, Final residual = 1.20553e-12, No Iterations 2
smoothSolver:  Solving for k, Initial residual = 1.27908e-05, Final residual = 6.17695e-12, No Iterations 2
ExecutionTime = 20.53 s  ClockTime = 20 s

Mean and max Courant Numbers = 0.000369496 9.26041
deltaT = 1.34143e-09
Time = 0.000190684

diagonal:  Solving for rho, Initial residual = 0, Final residual = 0, No Iterations 0
diagonal:  Solving for rhoUx, Initial residual = 0, Final residual = 0, No Iterations 0
diagonal:  Solving for rhoUy, Initial residual = 0, Final residual = 0, No Iterations 0
diagonal:  Solving for rhoUz, Initial residual = 0, Final residual = 0, No Iterations 0
smoothSolver:  Solving for Ux, Initial residual = 2.38594e-09, Final residual = 2.32515e-19, No Iterations 2
smoothSolver:  Solving for Uy, Initial residual = 7.15391e-08, Final residual = 2.65638e-18, No Iterations 2
smoothSolver:  Solving for Uz, Initial residual = 6.48791e-07, Final residual = 2.54527e-17, No Iterations 2
diagonal:  Solving for rhoE, Initial residual = 0, Final residual = 0, No Iterations 0
smoothSolver:  Solving for e, Initial residual = 4.0576e-09, Final residual = 2.95111e-18, No Iterations 2
smoothSolver:  Solving for epsilon, Initial residual = 2.75211e-07, Final residual = 2.20889e-18, No Iterations 2
smoothSolver:  Solving for k, Initial residual = 7.60662e-07, Final residual = 2.77332e-16, No Iterations 2
ExecutionTime = 20.61 s  ClockTime = 21 s

Mean and max Courant Numbers = 3.97607e-06 0.00991777
deltaT = 1.60958e-09
Time = 0.000190685

diagonal:  Solving for rho, Initial residual = 0, Final residual = 0, No Iterations 0
diagonal:  Solving for rhoUx, Initial residual = 0, Final residual = 0, No Iterations 0
diagonal:  Solving for rhoUy, Initial residual = 0, Final residual = 0, No Iterations 0
diagonal:  Solving for rhoUz, Initial residual = 0, Final residual = 0, No Iterations 0
smoothSolver:  Solving for Ux, Initial residual = 4.29616e-09, Final residual = 2.06372e-19, No Iterations 2
smoothSolver:  Solving for Uy, Initial residual = 5.94315e-07, Final residual = 4.25286e-18, No Iterations 2
smoothSolver:  Solving for Uz, Initial residual = 1.19323e-05, Final residual = 2.70588e-17, No Iterations 2
diagonal:  Solving for rhoE, Initial residual = 0, Final residual = 0, No Iterations 0
smoothSolver:  Solving for e, Initial residual = 1.45251e-06, Final residual = 1.83004e-18, No Iterations 2
